5754
     RDKit          3D

 26 29  0  0  1  0  0  0  0  0999 V2000
  -19.9698   15.0775    9.5269 O   0  0  0  0  0  0  0  0  0  0  0  0
  -16.0561   15.5146   12.2527 O   0  0  0  0  0  0  0  0  0  0  0  0
  -18.0652   16.5463    7.1932 O   0  0  0  0  0  0  0  0  0  0  0  0
  -18.4238   18.9347    8.1111 O   0  0  0  0  0  0  0  0  0  0  0  0
  -19.7416   11.9116   17.2690 O   0  0  0  0  0  0  0  0  0  0  0  0
  -17.7338   15.2586   10.2374 C   0  0  1  0  0  0  0  0  0  0  0  0
  -18.0601   13.8003   10.5739 C   0  0  2  0  0  0  0  0  0  0  0  0
  -17.3917   13.3088   11.8127 C   0  0  1  0  0  0  0  0  0  0  0  0
  -17.9440   14.2199   12.9175 C   0  0  1  0  0  0  0  0  0  0  0  0
  -18.6646   15.3501    9.0462 C   0  0  1  0  0  0  0  0  0  0  0  0
  -18.1239   16.1004   11.3884 C   0  0  0  0  0  0  0  0  0  0  0  0
  -17.6701   13.7034   14.2872 C   0  0  2  0  0  0  0  0  0  0  0  0
  -17.4178   15.5798   12.6300 C   0  0  2  0  0  0  0  0  0  0  0  0
  -17.7127   13.1344    9.3107 C   0  0  0  0  0  0  0  0  0  0  0  0
  -18.2578   14.1039    8.2697 C   0  0  0  0  0  0  0  0  0  0  0  0
  -17.7577   11.8740   11.9966 C   0  0  0  0  0  0  0  0  0  0  0  0
  -16.3270   15.4002    9.7565 C   0  0  0  0  0  0  0  0  0  0  0  0
  -17.8762   12.2461   14.3361 C   0  0  0  0  0  0  0  0  0  0  0  0
  -17.1492   11.4304   13.3359 C   0  0  0  0  0  0  0  0  0  0  0  0
  -18.4982   14.4857   15.2698 C   0  0  0  0  0  0  0  0  0  0  0  0
  -16.2169   13.9205   14.7165 C   0  0  0  0  0  0  0  0  0  0  0  0
  -18.6487   16.5882    8.2988 C   0  0  0  0  0  0  0  0  0  0  0  0
  -19.7362   13.8057   15.7502 C   0  0  0  0  0  0  0  0  0  0  0  0
  -18.6658   11.6177   15.1899 C   0  0  0  0  0  0  0  0  0  0  0  0
  -19.4187   12.3990   16.1868 C   0  0  0  0  0  0  0  0  0  0  0  0
  -19.2230   17.8966    8.6585 C   0  0  0  0  0  0  0  0  0  0  0  0
 10  1  1  1
 13  2  1  6
  3 22  2  0
  4 26  1  0
  5 25  2  0
  6  7  1  0
  6 10  1  0
  6 11  1  0
  6 17  1  6
  7  8  1  0
  7 14  1  6
  8  9  1  0
  8 16  1  1
  9 12  1  0
  9 13  1  1
 10 15  1  0
 10 22  1  0
 11 13  1  0
 12 18  1  0
 12 20  1  0
 12 21  1  1
 14 15  1  0
 16 19  1  0
 18 19  1  0
 18 24  2  0
 20 23  1  0
 22 26  1  0
 23 25  1  0
 24 25  1  0
M  END
>  <PUBCHEM_COMPOUND_CID>  (1) 
5754

>  <PUBCHEM_CONFORMER_RMSD>  (1) 
0.8

>  <PUBCHEM_CONFORMER_DIVERSEORDER>  (1) 
1
2

>  <PUBCHEM_MMFF94_PARTIAL_CHARGES>  (1) 
19
1 -0.68
10 0.34
12 0.14
13 0.28
18 -0.28
19 0.14
2 -0.68
22 0.45
23 0.06
24 -0.14
25 0.49
26 0.34
3 -0.57
4 -0.68
49 0.4
5 -0.57
52 0.4
53 0.15
56 0.4

>  <PUBCHEM_EFFECTIVE_ROTOR_COUNT>  (1) 
3.8

>  <PUBCHEM_PHARMACOPHORE_FEATURES>  (1) 
12
1 1 acceptor
1 1 donor
1 2 acceptor
1 2 donor
1 3 acceptor
1 4 acceptor
1 4 donor
1 5 acceptor
5 6 7 10 14 15 rings
6 12 18 20 23 24 25 rings
6 6 7 8 9 11 13 rings
6 8 9 12 16 18 19 rings

>  <PUBCHEM_HEAVY_ATOM_COUNT>  (1) 
26

>  <PUBCHEM_ATOM_DEF_STEREO_COUNT>  (1) 
7

>  <PUBCHEM_ATOM_UDEF_STEREO_COUNT>  (1) 
0

>  <PUBCHEM_BOND_DEF_STEREO_COUNT>  (1) 
0

>  <PUBCHEM_BOND_UDEF_STEREO_COUNT>  (1) 
0

>  <PUBCHEM_ISOTOPIC_ATOM_COUNT>  (1) 
0

>  <PUBCHEM_COMPONENT_COUNT>  (1) 
1

>  <PUBCHEM_CACTVS_TAUTO_COUNT>  (1) 
15

>  <PUBCHEM_CONFORMER_ID>  (1) 
0000167A00000001

>  <PUBCHEM_MMFF94_ENERGY>  (1) 
85.0863

>  <PUBCHEM_FEATURE_SELFOVERLAP>  (1) 
60.996

>  <PUBCHEM_SHAPE_FINGERPRINT>  (1) 
10366900 7 17917991672175146074
10498660 4 18408889524763672473
10906281 52 18341347607985845683
11315181 36 18130792282518495720
12011746 2 18341891904727391439
12236239 1 18060137604787030645
12403814 3 17240481403427723823
12516196 113 17775562044062305241
12596602 18 13614524056371416254
12788726 201 17988081067548850729
13140716 1 18265349476001296808
13224815 77 18343024371618182666
14849402 71 10303228262883412618
14931854 50 18411412878749210413
15196674 1 18408604725572198827
15238133 3 14273737309224184039
15375358 24 18409450292905420890
15788980 27 17095527309454736952
1601671 61 18260265248113354012
16945 1 18261122880046750585
17349148 13 18410004429580546211
18608769 82 18261959656616516491
18681886 176 18337386153770032520
19862831 5 18409730643049138363
200 152 17917708003124163943
20511986 3 18113885079285796338
20645477 70 18130507435860751606
21029758 11 18343300379565872769
21267235 1 18337964470652351643
21285901 2 17968650511269078327
21857420 4 12342185328057798381
221357 26 18341603807813301061
22393880 68 18413101771327272199
23402539 116 18409728474217079222
23559900 14 18340200890230348120
23569914 152 17049928088149316461
2871803 45 18411138013479345358
3004659 81 18187925019821925458
335352 9 18335420187923670678
34797466 226 17703794742473936260
34934 24 18333730204303173866
350125 39 18336554919000698507
3545911 37 18408041818700104899
3633792 109 18264201422821744903
465052 167 11167937000249878013
484989 97 18193835071553554375
5104073 3 18334017155252301027
5283173 99 18337104575445464629
59755656 215 18335706001593323438
59755656 520 18113329825560919743
9709674 26 18341059514554586038

>  <PUBCHEM_SHAPE_MULTIPOLES>  (1) 
505.72
12.37
2.14
1.19
2.59
0.54
-0.2
-1.82
4.07
-0.35
-0.31
-0.33
-0.22
0.2

>  <PUBCHEM_SHAPE_SELFOVERLAP>  (1) 
1088.966

>  <PUBCHEM_SHAPE_VOLUME>  (1) 
274.5

>  <PUBCHEM_COORDINATE_TYPE>  (1) 
2
5
10

$$$$
