# Top-energy pose of compounds ranked according to the score (given in kcal/mol).
@<TRIPOS>MOLECULE
ligand_9fab7b13fd_1_run_8.pdb
 74 77 0 0 0
SMALL
GASTEIGER

@<TRIPOS>ATOM
      1    O      -28.4040    6.9090    2.5000 O.3     2  LIG2       -0.3915
      2    C      -22.0820    6.7900    8.5390 C.3     2  LIG2       -0.0259
      3    C      -21.8250    7.0120    7.0350 C.3     2  LIG2       -0.0320
      4    C      -22.9350    6.4520    6.1400 C.3     2  LIG2       -0.0307
      5    C      -24.2930    7.1070    6.5260 C.3     2  LIG2       -0.0285
      6    C      -20.7790    7.4020    9.1070 C.3     2  LIG2       -0.0328
      7    C      -23.3640    7.5510    8.9050 C.3     2  LIG2       -0.0468
      8    C      -25.4810    6.5320    5.6550 C.3     2  LIG2       -0.0078
      9    C      -20.3970    6.5130    6.8340 C.3     2  LIG2       -0.0492
     10    C      -24.5590    7.0820    8.0570 C.3     2  LIG2       -0.0486
     11    C      -19.6820    6.8840    8.1480 C.3     2  LIG2       -0.0492
     12    C      -22.6240    6.7140    4.6600 C.3     2  LIG2       -0.0311
     13    C      -20.4720    7.1120   10.5700 C.3     2  LIG2       -0.0405
     14    C      -22.2210    5.3000    8.9400 C.3     2  LIG2       -0.0590
     15    C      -25.0780    6.4380    4.1770 C.2     2  LIG2       -0.0648
     16    C      -26.6970    7.4950    5.7920 C.3     2  LIG2       -0.0413
     17    C      -23.8040    6.5360    3.7590 C.2     2  LIG2       -0.0839
     18    C      -25.8930    5.1170    6.1290 C.3     2  LIG2       -0.0556
     19    C      -26.1880    6.2350    3.1710 C.3     2  LIG2       -0.0051
     20    C      -27.8290    7.2260    4.8010 C.3     2  LIG2       -0.0258
     21    C      -19.0020    7.3980   10.9390 C.3     2  LIG2       -0.0502
     22    C      -27.3210    7.2390    3.3650 C.3     2  LIG2        0.0590
     23    C      -21.3910    7.9430   11.4740 C.3     2  LIG2       -0.0621
     24    C      -18.5180    8.8370   10.7090 C.3     2  LIG2       -0.0526
     25    C      -16.9970    8.9920   10.8040 C.3     2  LIG2       -0.0507
     26    C      -16.5050   10.4170   10.4830 C.3     2  LIG2       -0.0467
     27    C      -16.8550   10.8530    9.0610 C.3     2  LIG2       -0.0627
     28    C      -14.9900   10.5000   10.6890 C.3     2  LIG2       -0.0627
     29    H      -29.1370    7.5260    2.6500 H       2  LIG2        0.2098
     30    H      -21.8790    8.0330    6.7190 H       2  LIG2        0.0309
     31    H      -22.9950    5.3940    6.2870 H       2  LIG2        0.0309
     32    H      -24.2290    8.1470    6.2840 H       2  LIG2        0.0312
     33    H      -20.8600    8.4690    9.1380 H       2  LIG2        0.0309
     34    H      -23.2070    8.5960    8.7370 H       2  LIG2        0.0271
     35    H      -23.5860    7.3590    9.9340 H       2  LIG2        0.0271
     36    H      -19.9380    7.0020    6.0000 H       2  LIG2        0.0268
     37    H      -20.3540    5.4650    6.6240 H       2  LIG2        0.0268
     38    H      -24.8010    6.0790    8.3410 H       2  LIG2        0.0268
     39    H      -25.3610    7.7660    8.2450 H       2  LIG2        0.0268
     40    H      -19.2020    6.0230    8.5640 H       2  LIG2        0.0268
     41    H      -18.9270    7.6240    7.9840 H       2  LIG2        0.0268
     42    H      -21.8570    6.0350    4.3500 H       2  LIG2        0.0310
     43    H      -22.3200    7.7360    4.5790 H       2  LIG2        0.0310
     44    H      -20.6460    6.0670   10.7200 H       2  LIG2        0.0301
     45    H      -21.3250    4.7760    8.6820 H       2  LIG2        0.0235
     46    H      -23.0500    4.8660    8.4210 H       2  LIG2        0.0235
     47    H      -22.3850    5.2290    9.9950 H       2  LIG2        0.0235
     48    H      -26.3510    8.4960    5.6400 H       2  LIG2        0.0274
     49    H      -27.1030    7.3380    6.7700 H       2  LIG2        0.0274
     50    H      -23.6280    6.4850    2.7430 H       2  LIG2        0.0572
     51    H      -25.0590    4.4530    6.0360 H       2  LIG2        0.0238
     52    H      -26.7010    4.7600    5.5250 H       2  LIG2        0.0238
     53    H      -26.2030    5.1590    7.1520 H       2  LIG2        0.0238
     54    H      -26.5800    5.2450    3.2820 H       2  LIG2        0.0335
     55    H      -25.7800    6.3790    2.1920 H       2  LIG2        0.0335
     56    H      -28.5780    7.9820    4.9140 H       2  LIG2        0.0290
     57    H      -28.2350    6.2570    5.0070 H       2  LIG2        0.0290
     58    H      -18.3850    6.7480   10.3550 H       2  LIG2        0.0268
     59    H      -18.9320    7.2360   11.9940 H       2  LIG2        0.0268
     60    H      -26.9410    8.2130    3.1380 H       2  LIG2        0.0596
     61    H      -21.2050    8.9840   11.3120 H       2  LIG2        0.0233
     62    H      -21.1970    7.7010   12.4980 H       2  LIG2        0.0233
     63    H      -22.4120    7.7220   11.2440 H       2  LIG2        0.0233
     64    H      -18.9700    9.4680   11.4450 H       2  LIG2        0.0265
     65    H      -18.8000    9.1080    9.7130 H       2  LIG2        0.0265
     66    H      -16.5420    8.3130   10.1130 H       2  LIG2        0.0268
     67    H      -16.7210    8.7830   11.8170 H       2  LIG2        0.0268
     68    H      -17.0080   11.0830   11.1530 H       2  LIG2        0.0295
     69    H      -16.3680   10.2070    8.3600 H       2  LIG2        0.0232
     70    H      -16.5270   11.8600    8.9050 H       2  LIG2        0.0232
     71    H      -17.9140   10.7970    8.9200 H       2  LIG2        0.0232
     72    H      -14.5010    9.8300   10.0140 H       2  LIG2        0.0232
     73    H      -14.7510   10.2290   11.6960 H       2  LIG2        0.0232
     74    H      -14.6590   11.5000   10.5010 H       2  LIG2        0.0232
@<TRIPOS>BOND
     1    55    19    1
     2     1    29    1
     3     1    22    1
     4    50    17    1
     5    60    22    1
     6    19    54    1
     7    19    22    1
     8    19    15    1
     9    22    20    1
    10    17    15    2
    11    17    12    1
    12    15     8    1
    13    42    12    1
    14    43    12    1
    15    12     4    1
    16    20    56    1
    17    20    57    1
    18    20    16    1
    19    52    18    1
    20    48    16    1
    21     8    16    1
    22     8    18    1
    23     8     5    1
    24    16    49    1
    25    36     9    1
    26    51    18    1
    27    18    53    1
    28     4    31    1
    29     4     5    1
    30     4     3    1
    31    32     5    1
    32     5    10    1
    33    37     9    1
    34    30     3    1
    35     9     3    1
    36     9    11    1
    37     3     2    1
    38    41    11    1
    39    10    39    1
    40    10    38    1
    41    10     7    1
    42    11    40    1
    43    11     6    1
    44    69    27    1
    45    46    14    1
    46     2     7    1
    47     2    14    1
    48     2     6    1
    49    45    14    1
    50    34     7    1
    51    70    27    1
    52     7    35    1
    53    71    27    1
    54    14    47    1
    55    27    26    1
    56     6    33    1
    57     6    13    1
    58    65    24    1
    59    72    28    1
    60    66    25    1
    61    58    21    1
    62    26    28    1
    63    26    25    1
    64    26    68    1
    65    74    28    1
    66    13    44    1
    67    13    21    1
    68    13    23    1
    69    28    73    1
    70    24    25    1
    71    24    21    1
    72    24    64    1
    73    25    67    1
    74    21    59    1
    75    63    23    1
    76    61    23    1
    77    23    62    1
