@<TRIPOS>MOLECULE
ligand_9fab7b13fd_1_run_8.pdb
 74 77 0 0 0
SMALL
GASTEIGER

@<TRIPOS>ATOM
      1    O      -28.4040    6.9090    2.5000 O.3     2  LIG2       -0.3915
      2    C      -22.0820    6.7900    8.5390 C.3     2  LIG2       -0.0259
      3    C      -21.8250    7.0120    7.0350 C.3     2  LIG2       -0.0320
      4    C      -22.9350    6.4520    6.1400 C.3     2  LIG2       -0.0307
      5    C      -24.2930    7.1070    6.5260 C.3     2  LIG2       -0.0285
      6    C      -20.7790    7.4020    9.1070 C.3     2  LIG2       -0.0328
      7    C      -23.3640    7.5510    8.9050 C.3     2  LIG2       -0.0468
      8    C      -25.4810    6.5320    5.6550 C.3     2  LIG2       -0.0078
      9    C      -20.3970    6.5130    6.8340 C.3     2  LIG2       -0.0492
     10    C      -24.5590    7.0820    8.0570 C.3     2  LIG2       -0.0486
     11    C      -19.6820    6.8840    8.1480 C.3     2  LIG2       -0.0492
     12    C      -22.6240    6.7140    4.6600 C.3     2  LIG2       -0.0311
     13    C      -20.4720    7.1120   10.5700 C.3     2  LIG2       -0.0405
     14    C      -22.2210    5.3000    8.9400 C.3     2  LIG2       -0.0590
     15    C      -25.0780    6.4380    4.1770 C.2     2  LIG2       -0.0648
     16    C      -26.6970    7.4950    5.7920 C.3     2  LIG2       -0.0413
     17    C      -23.8040    6.5360    3.7590 C.2     2  LIG2       -0.0839
     18    C      -25.8930    5.1170    6.1290 C.3     2  LIG2       -0.0556
     19    C      -26.1880    6.2350    3.1710 C.3     2  LIG2       -0.0051
     20    C      -27.8290    7.2260    4.8010 C.3     2  LIG2       -0.0258
     21    C      -19.0020    7.3980   10.9390 C.3     2  LIG2       -0.0502
     22    C      -27.3210    7.2390    3.3650 C.3     2  LIG2        0.0590
     23    C      -21.3910    7.9430   11.4740 C.3     2  LIG2       -0.0621
     24    C      -18.5180    8.8370   10.7090 C.3     2  LIG2       -0.0526
     25    C      -16.9970    8.9920   10.8040 C.3     2  LIG2       -0.0507
     26    C      -16.5050   10.4170   10.4830 C.3     2  LIG2       -0.0467
     27    C      -16.8550   10.8530    9.0610 C.3     2  LIG2       -0.0627
     28    C      -14.9900   10.5000   10.6890 C.3     2  LIG2       -0.0627
     29    H      -29.1370    7.5260    2.6500 H       2  LIG2        0.2098
     30    H      -21.8790    8.0330    6.7190 H       2  LIG2        0.0309
     31    H      -22.9950    5.3940    6.2870 H       2  LIG2        0.0309
     32    H      -24.2290    8.1470    6.2840 H       2  LIG2        0.0312
     33    H      -20.8600    8.4690    9.1380 H       2  LIG2        0.0309
     34    H      -23.2070    8.5960    8.7370 H       2  LIG2        0.0271
     35    H      -23.5860    7.3590    9.9340 H       2  LIG2        0.0271
     36    H      -19.9380    7.0020    6.0000 H       2  LIG2        0.0268
     37    H      -20.3540    5.4650    6.6240 H       2  LIG2        0.0268
     38    H      -24.8010    6.0790    8.3410 H       2  LIG2        0.0268
     39    H      -25.3610    7.7660    8.2450 H       2  LIG2        0.0268
     40    H      -19.2020    6.0230    8.5640 H       2  LIG2        0.0268
     41    H      -18.9270    7.6240    7.9840 H       2  LIG2        0.0268
     42    H      -21.8570    6.0350    4.3500 H       2  LIG2        0.0310
     43    H      -22.3200    7.7360    4.5790 H       2  LIG2        0.0310
     44    H      -20.6460    6.0670   10.7200 H       2  LIG2        0.0301
     45    H      -21.3250    4.7760    8.6820 H       2  LIG2        0.0235
     46    H      -23.0500    4.8660    8.4210 H       2  LIG2        0.0235
     47    H      -22.3850    5.2290    9.9950 H       2  LIG2        0.0235
     48    H      -26.3510    8.4960    5.6400 H       2  LIG2        0.0274
     49    H      -27.1030    7.3380    6.7700 H       2  LIG2        0.0274
     50    H      -23.6280    6.4850    2.7430 H       2  LIG2        0.0572
     51    H      -25.0590    4.4530    6.0360 H       2  LIG2        0.0238
     52    H      -26.7010    4.7600    5.5250 H       2  LIG2        0.0238
     53    H      -26.2030    5.1590    7.1520 H       2  LIG2        0.0238
     54    H      -26.5800    5.2450    3.2820 H       2  LIG2        0.0335
     55    H      -25.7800    6.3790    2.1920 H       2  LIG2        0.0335
     56    H      -28.5780    7.9820    4.9140 H       2  LIG2        0.0290
     57    H      -28.2350    6.2570    5.0070 H       2  LIG2        0.0290
     58    H      -18.3850    6.7480   10.3550 H       2  LIG2        0.0268
     59    H      -18.9320    7.2360   11.9940 H       2  LIG2        0.0268
     60    H      -26.9410    8.2130    3.1380 H       2  LIG2        0.0596
     61    H      -21.2050    8.9840   11.3120 H       2  LIG2        0.0233
     62    H      -21.1970    7.7010   12.4980 H       2  LIG2        0.0233
     63    H      -22.4120    7.7220   11.2440 H       2  LIG2        0.0233
     64    H      -18.9700    9.4680   11.4450 H       2  LIG2        0.0265
     65    H      -18.8000    9.1080    9.7130 H       2  LIG2        0.0265
     66    H      -16.5420    8.3130   10.1130 H       2  LIG2        0.0268
     67    H      -16.7210    8.7830   11.8170 H       2  LIG2        0.0268
     68    H      -17.0080   11.0830   11.1530 H       2  LIG2        0.0295
     69    H      -16.3680   10.2070    8.3600 H       2  LIG2        0.0232
     70    H      -16.5270   11.8600    8.9050 H       2  LIG2        0.0232
     71    H      -17.9140   10.7970    8.9200 H       2  LIG2        0.0232
     72    H      -14.5010    9.8300   10.0140 H       2  LIG2        0.0232
     73    H      -14.7510   10.2290   11.6960 H       2  LIG2        0.0232
     74    H      -14.6590   11.5000   10.5010 H       2  LIG2        0.0232
@<TRIPOS>BOND
     1    55    19    1
     2     1    29    1
     3     1    22    1
     4    50    17    1
     5    60    22    1
     6    19    54    1
     7    19    22    1
     8    19    15    1
     9    22    20    1
    10    17    15    2
    11    17    12    1
    12    15     8    1
    13    42    12    1
    14    43    12    1
    15    12     4    1
    16    20    56    1
    17    20    57    1
    18    20    16    1
    19    52    18    1
    20    48    16    1
    21     8    16    1
    22     8    18    1
    23     8     5    1
    24    16    49    1
    25    36     9    1
    26    51    18    1
    27    18    53    1
    28     4    31    1
    29     4     5    1
    30     4     3    1
    31    32     5    1
    32     5    10    1
    33    37     9    1
    34    30     3    1
    35     9     3    1
    36     9    11    1
    37     3     2    1
    38    41    11    1
    39    10    39    1
    40    10    38    1
    41    10     7    1
    42    11    40    1
    43    11     6    1
    44    69    27    1
    45    46    14    1
    46     2     7    1
    47     2    14    1
    48     2     6    1
    49    45    14    1
    50    34     7    1
    51    70    27    1
    52     7    35    1
    53    71    27    1
    54    14    47    1
    55    27    26    1
    56     6    33    1
    57     6    13    1
    58    65    24    1
    59    72    28    1
    60    66    25    1
    61    58    21    1
    62    26    28    1
    63    26    25    1
    64    26    68    1
    65    74    28    1
    66    13    44    1
    67    13    21    1
    68    13    23    1
    69    28    73    1
    70    24    25    1
    71    24    21    1
    72    24    64    1
    73    25    67    1
    74    21    59    1
    75    63    23    1
    76    61    23    1
    77    23    62    1
@<TRIPOS>MOLECULE
ligand_9fab7b13fd_1_run_9.pdb
 74 77 0 0 0
SMALL
GASTEIGER

@<TRIPOS>ATOM
      1    O      -16.6080    2.4570   -7.4990 O.3     2  LIG2       -0.3915
      2    C      -24.5950    6.0140   -7.4650 C.3     2  LIG2       -0.0259
      3    C      -24.2030    4.7830   -6.6240 C.3     2  LIG2       -0.0320
      4    C      -22.9970    4.0230   -7.1850 C.3     2  LIG2       -0.0307
      5    C      -21.7760    4.9840   -7.2800 C.3     2  LIG2       -0.0285
      6    C      -25.8370    6.4750   -6.6660 C.3     2  LIG2       -0.0328
      7    C      -23.4110    6.9900   -7.4340 C.3     2  LIG2       -0.0468
      8    C      -20.5130    4.2570   -7.8920 C.3     2  LIG2       -0.0078
      9    C      -25.5200    4.0360   -6.4380 C.3     2  LIG2       -0.0492
     10    C      -22.1250    6.3340   -7.9670 C.3     2  LIG2       -0.0486
     11    C      -26.5750    5.1550   -6.3410 C.3     2  LIG2       -0.0492
     12    C      -22.6520    2.8180   -6.2990 C.3     2  LIG2       -0.0311
     13    C      -26.7350    7.5050   -7.3390 C.3     2  LIG2       -0.0405
     14    C      -24.9650    5.6820   -8.9320 C.3     2  LIG2       -0.0590
     15    C      -20.3330    2.8630   -7.2740 C.2     2  LIG2       -0.0648
     16    C      -19.2530    5.1190   -7.5790 C.3     2  LIG2       -0.0413
     17    C      -21.2930    2.2510   -6.5580 C.2     2  LIG2       -0.0839
     18    C      -20.6480    4.0860   -9.4240 C.3     2  LIG2       -0.0556
     19    C      -19.0030    2.1780   -7.4900 C.3     2  LIG2       -0.0051
     20    C      -17.9250    4.4210   -7.8660 C.3     2  LIG2       -0.0258
     21    C      -28.1030    7.6510   -6.6400 C.3     2  LIG2       -0.0502
     22    C      -17.8310    3.0880   -7.1330 C.3     2  LIG2        0.0590
     23    C      -26.0360    8.8690   -7.3720 C.3     2  LIG2       -0.0621
     24    C      -28.0660    8.1300   -5.1820 C.3     2  LIG2       -0.0526
     25    C      -29.4440    8.1550   -4.5130 C.3     2  LIG2       -0.0507
     26    C      -29.3930    8.5420   -3.0210 C.3     2  LIG2       -0.0467
     27    C      -30.7040    8.2470   -2.2920 C.3     2  LIG2       -0.0627
     28    C      -29.0500   10.0280   -2.8840 C.3     2  LIG2       -0.0627
     29    H      -16.4900    2.5140   -8.4600 H       2  LIG2        0.2098
     30    H      -23.8000    5.0110   -5.6590 H       2  LIG2        0.0309
     31    H      -23.2420    3.6600   -8.1610 H       2  LIG2        0.0309
     32    H      -21.5030    5.2560   -6.2820 H       2  LIG2        0.0312
     33    H      -25.5330    7.0260   -5.8010 H       2  LIG2        0.0309
     34    H      -23.2470    7.3050   -6.4240 H       2  LIG2        0.0271
     35    H      -23.6470    7.8240   -8.0600 H       2  LIG2        0.0271
     36    H      -25.5030    3.4510   -5.5430 H       2  LIG2        0.0268
     37    H      -25.7200    3.3510   -7.2360 H       2  LIG2        0.0268
     38    H      -22.2470    6.1570   -9.0150 H       2  LIG2        0.0268
     39    H      -21.3210    7.0080   -7.7550 H       2  LIG2        0.0268
     40    H      -27.3610    4.9860   -7.0470 H       2  LIG2        0.0268
     41    H      -27.0190    5.1870   -5.3680 H       2  LIG2        0.0268
     42    H      -23.3770    2.0510   -6.4740 H       2  LIG2        0.0310
     43    H      -22.6590    3.1620   -5.2850 H       2  LIG2        0.0310
     44    H      -26.9160    7.1540   -8.3330 H       2  LIG2        0.0301
     45    H      -25.7900    5.0010   -8.9470 H       2  LIG2        0.0235
     46    H      -24.1240    5.2330   -9.4200 H       2  LIG2        0.0235
     47    H      -25.2350    6.5810   -9.4440 H       2  LIG2        0.0235
     48    H      -19.2770    5.3810   -6.5420 H       2  LIG2        0.0274
     49    H      -19.2970    5.9700   -8.2260 H       2  LIG2        0.0274
     50    H      -21.0770    1.3240   -6.1600 H       2  LIG2        0.0572
     51    H      -21.5130    3.4940   -9.6420 H       2  LIG2        0.0238
     52    H      -19.7760    3.5980   -9.8070 H       2  LIG2        0.0238
     53    H      -20.7490    5.0470   -9.8830 H       2  LIG2        0.0238
     54    H      -18.9210    1.8970   -8.5200 H       2  LIG2        0.0335
     55    H      -18.9630    1.3200   -6.8530 H       2  LIG2        0.0335
     56    H      -17.1230    5.0520   -7.5450 H       2  LIG2        0.0290
     57    H      -17.8610    4.2330   -8.9170 H       2  LIG2        0.0290
     58    H      -28.5840    6.6950   -6.6580 H       2  LIG2        0.0268
     59    H      -28.6240    8.4130   -7.1810 H       2  LIG2        0.0268
     60    H      -17.8620    3.2670   -6.0780 H       2  LIG2        0.0596
     61    H      -25.8630    9.2050   -6.3710 H       2  LIG2        0.0233
     62    H      -26.6570    9.5760   -7.8830 H       2  LIG2        0.0233
     63    H      -25.1020    8.7790   -7.8850 H       2  LIG2        0.0233
     64    H      -27.6610    9.1210   -5.1610 H       2  LIG2        0.0265
     65    H      -27.4630    7.4340   -4.6370 H       2  LIG2        0.0265
     66    H      -29.8790    7.1810   -4.5960 H       2  LIG2        0.0268
     67    H      -30.0240    8.9020   -5.0130 H       2  LIG2        0.0268
     68    H      -28.6330    7.9420   -2.5650 H       2  LIG2        0.0295
     69    H      -31.4900    8.8310   -2.7230 H       2  LIG2        0.0232
     70    H      -30.6000    8.4960   -1.2570 H       2  LIG2        0.0232
     71    H      -30.9390    7.2080   -2.3870 H       2  LIG2        0.0232
     72    H      -29.8180   10.6150   -3.3440 H       2  LIG2        0.0232
     73    H      -28.1150   10.2240   -3.3640 H       2  LIG2        0.0232
     74    H      -28.9800   10.2830   -1.8470 H       2  LIG2        0.0232
@<TRIPOS>BOND
     1    53    18    1
     2    52    18    1
     3    51    18    1
     4    47    14    1
     5    18     8    1
     6    46    14    1
     7    38    10    1
     8    45    14    1
     9    14     2    1
    10    57    20    1
    11    54    19    1
    12    29     1    1
    13    44    13    1
    14    49    16    1
    15    31     4    1
    16    35     7    1
    17    10    39    1
    18    10     7    1
    19    10     5    1
    20     8    16    1
    21     8     5    1
    22     8    15    1
    23    63    23    1
    24    62    23    1
    25    20    16    1
    26    20    56    1
    27    20    22    1
    28    16    48    1
    29     1    22    1
    30    19    15    1
    31    19    22    1
    32    19    55    1
    33     2     7    1
    34     2     6    1
    35     2     3    1
    36     7    34    1
    37    23    13    1
    38    23    61    1
    39    13     6    1
    40    13    21    1
    41     5     4    1
    42     5    32    1
    43    15    17    2
    44    37     9    1
    45     4     3    1
    46     4    12    1
    47    59    21    1
    48    22    60    1
    49    40    11    1
    50     6    11    1
    51     6    33    1
    52    58    21    1
    53    21    24    1
    54     3     9    1
    55     3    30    1
    56    17    12    1
    57    17    50    1
    58    42    12    1
    59     9    11    1
    60     9    36    1
    61    11    41    1
    62    12    43    1
    63    24    64    1
    64    24    65    1
    65    24    25    1
    66    67    25    1
    67    66    25    1
    68    25    26    1
    69    73    28    1
    70    72    28    1
    71    26    28    1
    72    26    68    1
    73    26    27    1
    74    28    74    1
    75    69    27    1
    76    71    27    1
    77    27    70    1
@<TRIPOS>MOLECULE
ligand_9fab7b13fd_1_run_20.pdb
 74 77 0 0 0
SMALL
GASTEIGER

@<TRIPOS>ATOM
      1    O      -16.6460    9.8490   12.6620 O.3     2  LIG2       -0.3915
      2    C      -22.8450    6.9600    7.2150 C.3     2  LIG2       -0.0259
      3    C      -23.0210    8.1780    8.1430 C.3     2  LIG2       -0.0320
      4    C      -22.0840    8.1590    9.3540 C.3     2  LIG2       -0.0307
      5    C      -20.6070    8.1010    8.8670 C.3     2  LIG2       -0.0285
      6    C      -23.9520    7.2740    6.1800 C.3     2  LIG2       -0.0328
      7    C      -21.4150    7.0070    6.6610 C.3     2  LIG2       -0.0468
      8    C      -19.5980    8.0390   10.0830 C.3     2  LIG2       -0.0078
      9    C      -24.5280    8.2380    8.3800 C.3     2  LIG2       -0.0492
     10    C      -20.3710    7.0040    7.7920 C.3     2  LIG2       -0.0486
     11    C      -25.1360    7.7630    7.0470 C.3     2  LIG2       -0.0492
     12    C      -22.3030    9.4000   10.2310 C.3     2  LIG2       -0.0311
     13    C      -24.3380    6.1460    5.2320 C.3     2  LIG2       -0.0405
     14    C      -23.0970    5.5980    7.9080 C.3     2  LIG2       -0.0590
     15    C      -19.9970    9.0430   11.1740 C.2     2  LIG2       -0.0648
     16    C      -18.1770    8.3970    9.5570 C.3     2  LIG2       -0.0413
     17    C      -21.1990    9.6450   11.2100 C.2     2  LIG2       -0.0839
     18    C      -19.5690    6.6290   10.7200 C.3     2  LIG2       -0.0556
     19    C      -18.9670    9.3540   12.2360 C.3     2  LIG2       -0.0051
     20    C      -17.1430    8.6460   10.6540 C.3     2  LIG2       -0.0258
     21    C      -25.7180    6.3630    4.5770 C.3     2  LIG2       -0.0502
     22    C      -17.6160    9.7190   11.6270 C.3     2  LIG2        0.0590
     23    C      -23.2760    5.9950    4.1360 C.3     2  LIG2       -0.0621
     24    C      -26.1800    5.2690    3.6040 C.3     2  LIG2       -0.0526
     25    C      -26.1560    3.8630    4.2100 C.3     2  LIG2       -0.0507
     26    C      -26.9190    2.8200    3.3690 C.3     2  LIG2       -0.0467
     27    C      -26.9860    1.4520    4.0470 C.3     2  LIG2       -0.0627
     28    C      -26.2570    2.6810    1.9950 C.3     2  LIG2       -0.0627
     29    H      -15.7890   10.0870   12.2740 H       2  LIG2        0.2098
     30    H      -22.7040    9.1100    7.7230 H       2  LIG2        0.0309
     31    H      -22.3000    7.2920    9.9440 H       2  LIG2        0.0309
     32    H      -20.3990    9.0200    8.3600 H       2  LIG2        0.0312
     33    H      -23.6010    8.0000    5.4770 H       2  LIG2        0.0309
     34    H      -21.2950    7.8970    6.0800 H       2  LIG2        0.0271
     35    H      -21.2590    6.1360    6.0590 H       2  LIG2        0.0271
     36    H      -24.8380    9.2370    8.6050 H       2  LIG2        0.0268
     37    H      -24.8370    7.6380    9.2100 H       2  LIG2        0.0268
     38    H      -20.3990    6.0490    8.2730 H       2  LIG2        0.0268
     39    H      -19.4230    7.2090    7.3410 H       2  LIG2        0.0268
     40    H      -25.8250    6.9630    7.2180 H       2  LIG2        0.0268
     41    H      -25.6740    8.5510    6.5620 H       2  LIG2        0.0268
     42    H      -23.2150    9.2730   10.7760 H       2  LIG2        0.0310
     43    H      -22.3330   10.2450    9.5760 H       2  LIG2        0.0310
     44    H      -24.3960    5.2550    5.8210 H       2  LIG2        0.0301
     45    H      -24.0960    5.5730    8.2920 H       2  LIG2        0.0235
     46    H      -22.4030    5.4730    8.7120 H       2  LIG2        0.0235
     47    H      -22.9680    4.8070    7.1990 H       2  LIG2        0.0235
     48    H      -18.2530    9.2830    8.9620 H       2  LIG2        0.0274
     49    H      -17.8350    7.5490    9.0010 H       2  LIG2        0.0274
     50    H      -21.3730   10.3240   11.9680 H       2  LIG2        0.0572
     51    H      -20.5440    6.3810   11.0820 H       2  LIG2        0.0238
     52    H      -18.8730    6.6190   11.5330 H       2  LIG2        0.0238
     53    H      -19.2680    5.9120    9.9850 H       2  LIG2        0.0238
     54    H      -18.8440    8.4940   12.8610 H       2  LIG2        0.0335
     55    H      -19.3150   10.1940   12.8010 H       2  LIG2        0.0335
     56    H      -16.2260    8.9640   10.2030 H       2  LIG2        0.0290
     57    H      -17.0010    7.7350   11.1980 H       2  LIG2        0.0290
     58    H      -25.6840    7.2870    4.0390 H       2  LIG2        0.0268
     59    H      -26.4240    6.3500    5.3820 H       2  LIG2        0.0268
     60    H      -17.7310   10.6430   11.0990 H       2  LIG2        0.0596
     61    H      -23.2310    6.8940    3.5570 H       2  LIG2        0.0233
     62    H      -23.5340    5.1740    3.5000 H       2  LIG2        0.0233
     63    H      -22.3230    5.8120    4.5850 H       2  LIG2        0.0233
     64    H      -25.5360    5.2810    2.7500 H       2  LIG2        0.0265
     65    H      -27.1970    5.4840    3.3480 H       2  LIG2        0.0265
     66    H      -26.6000    3.9040    5.1820 H       2  LIG2        0.0268
     67    H      -25.1330    3.5520    4.2460 H       2  LIG2        0.0268
     68    H      -27.9230    3.1730    3.2630 H       2  LIG2        0.0295
     69    H      -25.9960    1.0660    4.1700 H       2  LIG2        0.0232
     70    H      -27.5580    0.7810    3.4410 H       2  LIG2        0.0232
     71    H      -27.4510    1.5520    5.0060 H       2  LIG2        0.0232
     72    H      -25.2540    2.3270    2.1160 H       2  LIG2        0.0232
     73    H      -26.2430    3.6330    1.5070 H       2  LIG2        0.0232
     74    H      -26.8110    1.9840    1.4010 H       2  LIG2        0.0232
@<TRIPOS>BOND
     1    74    28    1
     2    73    28    1
     3    28    72    1
     4    28    26    1
     5    64    24    1
     6    68    26    1
     7    65    24    1
     8    26    27    1
     9    26    25    1
    10    70    27    1
    11    62    23    1
    12    61    23    1
    13    24    25    1
    14    24    21    1
    15    58    21    1
    16    27    69    1
    17    27    71    1
    18    23    63    1
    19    23    13    1
    20    25    67    1
    21    25    66    1
    22    21    13    1
    23    21    59    1
    24    13    44    1
    25    13     6    1
    26    33     6    1
    27    35     7    1
    28    34     7    1
    29     6    11    1
    30     6     2    1
    31    41    11    1
    32     7     2    1
    33     7    10    1
    34    11    40    1
    35    11     9    1
    36    47    14    1
    37     2    14    1
    38     2     3    1
    39    39    10    1
    40    30     3    1
    41    10    38    1
    42    10     5    1
    43    14    45    1
    44    14    46    1
    45     3     9    1
    46     3     4    1
    47    32     5    1
    48     9    36    1
    49     9    37    1
    50     5     4    1
    51     5     8    1
    52    48    16    1
    53    49    16    1
    54     4    31    1
    55     4    12    1
    56    16     8    1
    57    16    20    1
    58    43    12    1
    59    53    18    1
    60     8    18    1
    61     8    15    1
    62    56    20    1
    63    12    42    1
    64    12    17    1
    65    20    57    1
    66    20    22    1
    67    18    51    1
    68    18    52    1
    69    60    22    1
    70    15    17    2
    71    15    19    1
    72    17    50    1
    73    22    19    1
    74    22     1    1
    75    19    55    1
    76    19    54    1
    77    29     1    1
