# Top-energy pose of compounds ranked according to the score (given in kcal/mol).
@<TRIPOS>MOLECULE
ligand_44bce0cbfe_1_run_17.pdb
 74 77 0 0 0
SMALL
GASTEIGER

@<TRIPOS>ATOM
      1    O       25.7830   -2.5000   10.9570 O.3     2  LIG2       -0.3915
      2    C       19.4310    0.6270   16.0870 C.3     2  LIG2       -0.0259
      3    C       20.7990    0.1510   16.6130 C.3     2  LIG2       -0.0320
      4    C       21.5000   -0.8370   15.6750 C.3     2  LIG2       -0.0307
      5    C       21.6940   -0.1770   14.2780 C.3     2  LIG2       -0.0285
      6    C       19.0060    1.5240   17.2740 C.3     2  LIG2       -0.0328
      7    C       19.6790    1.3770   14.7710 C.3     2  LIG2       -0.0468
      8    C       22.3800   -1.1720   13.2590 C.3     2  LIG2       -0.0078
      9    C       20.5060   -0.2810   18.0470 C.3     2  LIG2       -0.0492
     10    C       20.3950    0.4860   13.7410 C.3     2  LIG2       -0.0486
     11    C       19.4180    0.7030   18.5190 C.3     2  LIG2       -0.0492
     12    C       22.8580   -1.2640   16.2510 C.3     2  LIG2       -0.0311
     13    C       17.5490    1.9630   17.3100 C.3     2  LIG2       -0.0405
     14    C       18.4110   -0.5160   15.8580 C.3     2  LIG2       -0.0590
     15    C       23.5550   -1.9060   13.9200 C.2     2  LIG2       -0.0648
     16    C       22.9110   -0.3440   12.0510 C.3     2  LIG2       -0.0413
     17    C       23.7540   -1.9200   15.2500 C.2     2  LIG2       -0.0839
     18    C       21.3780   -2.2360   12.7500 C.3     2  LIG2       -0.0556
     19    C       24.5190   -2.6290   13.0060 C.3     2  LIG2       -0.0051
     20    C       23.8340   -1.1200   11.1130 C.3     2  LIG2       -0.0258
     21    C       17.1020    2.4390   18.7080 C.3     2  LIG2       -0.0502
     22    C       25.0060   -1.7320   11.8710 C.3     2  LIG2        0.0590
     23    C       17.3140    3.0870   16.2940 C.3     2  LIG2       -0.0621
     24    C       15.6720    2.9870   18.8070 C.3     2  LIG2       -0.0526
     25    C       15.2080    3.2240   20.2480 C.3     2  LIG2       -0.0507
     26    C       13.7310    3.6550   20.3520 C.3     2  LIG2       -0.0467
     27    C       13.4600    4.9950   19.6680 C.3     2  LIG2       -0.0627
     28    C       13.3200    3.7370   21.8250 C.3     2  LIG2       -0.0627
     29    H       25.2550   -3.2450   10.6290 H       2  LIG2        0.2098
     30    H       21.5580    0.9050   16.6310 H       2  LIG2        0.0309
     31    H       20.8900   -1.7100   15.5760 H       2  LIG2        0.0309
     32    H       22.3780    0.6360   14.4000 H       2  LIG2        0.0312
     33    H       19.4890    2.4770   17.2050 H       2  LIG2        0.0309
     34    H       20.2850    2.2360   14.9690 H       2  LIG2        0.0271
     35    H       18.7320    1.6650   14.3650 H       2  LIG2        0.0271
     36    H       21.3820   -0.1980   18.6560 H       2  LIG2        0.0268
     37    H       20.1930   -1.3020   18.1140 H       2  LIG2        0.0268
     38    H       19.7220   -0.2890   13.4390 H       2  LIG2        0.0268
     39    H       20.6830    1.1200   12.9290 H       2  LIG2        0.0268
     40    H       18.5760    0.1680   18.9050 H       2  LIG2        0.0268
     41    H       19.7800    1.3380   19.3010 H       2  LIG2        0.0268
     42    H       22.6840   -1.9520   17.0510 H       2  LIG2        0.0310
     43    H       23.3540   -0.3740   16.5780 H       2  LIG2        0.0310
     44    H       16.9620    1.1040   17.0580 H       2  LIG2        0.0301
     45    H       18.2430   -1.0340   16.7790 H       2  LIG2        0.0235
     46    H       18.7980   -1.1990   15.1300 H       2  LIG2        0.0235
     47    H       17.4880   -0.1060   15.5060 H       2  LIG2        0.0235
     48    H       23.4510    0.4960   12.4330 H       2  LIG2        0.0274
     49    H       22.0550   -0.0630   11.4740 H       2  LIG2        0.0274
     50    H       24.5840   -2.4200   15.6050 H       2  LIG2        0.0572
     51    H       21.0120   -2.8060   13.5780 H       2  LIG2        0.0238
     52    H       21.8710   -2.8870   12.0580 H       2  LIG2        0.0238
     53    H       20.5600   -1.7500   12.2610 H       2  LIG2        0.0238
     54    H       24.0270   -3.4810   12.5880 H       2  LIG2        0.0335
     55    H       25.3700   -2.9220   13.5860 H       2  LIG2        0.0335
     56    H       24.2120   -0.4530   10.3660 H       2  LIG2        0.0290
     57    H       23.2720   -1.9110   10.6630 H       2  LIG2        0.0290
     58    H       17.7720    3.2130   19.0190 H       2  LIG2        0.0268
     59    H       17.1210    1.5680   19.3290 H       2  LIG2        0.0268
     60    H       25.5930   -0.9470   12.2990 H       2  LIG2        0.0596
     61    H       17.9070    3.9370   16.5600 H       2  LIG2        0.0233
     62    H       16.2790    3.3600   16.2960 H       2  LIG2        0.0233
     63    H       17.5920    2.7500   15.3170 H       2  LIG2        0.0233
     64    H       15.0070    2.2840   18.3490 H       2  LIG2        0.0265
     65    H       15.6620    3.9350   18.3130 H       2  LIG2        0.0265
     66    H       15.8160    3.9920   20.6780 H       2  LIG2        0.0268
     67    H       15.3030    2.2940   20.7680 H       2  LIG2        0.0268
     68    H       13.1490    2.9150   19.8440 H       2  LIG2        0.0295
     69    H       14.0280    5.7630   20.1510 H       2  LIG2        0.0232
     70    H       12.4180    5.2250   19.7360 H       2  LIG2        0.0232
     71    H       13.7460    4.9340   18.6390 H       2  LIG2        0.0232
     72    H       13.9090    4.4800   22.3190 H       2  LIG2        0.0232
     73    H       13.4770    2.7880   22.2930 H       2  LIG2        0.0232
     74    H       12.2850    4.0000   21.8920 H       2  LIG2        0.0232
@<TRIPOS>BOND
     1    56    20    1
     2    29     1    1
     3    57    20    1
     4     1    22    1
     5    20    22    1
     6    20    16    1
     7    49    16    1
     8    22    60    1
     9    22    19    1
    10    16    48    1
    11    16     8    1
    12    52    18    1
    13    53    18    1
    14    54    19    1
    15    18     8    1
    16    18    51    1
    17    39    10    1
    18    19    55    1
    19    19    15    1
    20     8    15    1
    21     8     5    1
    22    38    10    1
    23    10     5    1
    24    10     7    1
    25    15    17    2
    26     5    32    1
    27     5     4    1
    28    35     7    1
    29     7    34    1
    30     7     2    1
    31    46    14    1
    32    17    50    1
    33    17    12    1
    34    63    23    1
    35    47    14    1
    36    31     4    1
    37     4    12    1
    38     4     3    1
    39    14     2    1
    40    14    45    1
    41     2     3    1
    42     2     6    1
    43    12    43    1
    44    12    42    1
    45    23    62    1
    46    23    61    1
    47    23    13    1
    48     3    30    1
    49     3     9    1
    50    44    13    1
    51    33     6    1
    52     6    13    1
    53     6    11    1
    54    13    21    1
    55     9    37    1
    56     9    11    1
    57     9    36    1
    58    65    24    1
    59    64    24    1
    60    11    40    1
    61    11    41    1
    62    71    27    1
    63    21    24    1
    64    21    58    1
    65    21    59    1
    66    24    25    1
    67    27    70    1
    68    27    69    1
    69    27    26    1
    70    68    26    1
    71    25    26    1
    72    25    66    1
    73    25    67    1
    74    26    28    1
    75    28    74    1
    76    28    73    1
    77    28    72    1
