@<TRIPOS>MOLECULE
ligand_44bce0cbfe_1_run_17.pdb
 74 77 0 0 0
SMALL
GASTEIGER

@<TRIPOS>ATOM
      1    O       25.7830   -2.5000   10.9570 O.3     2  LIG2       -0.3915
      2    C       19.4310    0.6270   16.0870 C.3     2  LIG2       -0.0259
      3    C       20.7990    0.1510   16.6130 C.3     2  LIG2       -0.0320
      4    C       21.5000   -0.8370   15.6750 C.3     2  LIG2       -0.0307
      5    C       21.6940   -0.1770   14.2780 C.3     2  LIG2       -0.0285
      6    C       19.0060    1.5240   17.2740 C.3     2  LIG2       -0.0328
      7    C       19.6790    1.3770   14.7710 C.3     2  LIG2       -0.0468
      8    C       22.3800   -1.1720   13.2590 C.3     2  LIG2       -0.0078
      9    C       20.5060   -0.2810   18.0470 C.3     2  LIG2       -0.0492
     10    C       20.3950    0.4860   13.7410 C.3     2  LIG2       -0.0486
     11    C       19.4180    0.7030   18.5190 C.3     2  LIG2       -0.0492
     12    C       22.8580   -1.2640   16.2510 C.3     2  LIG2       -0.0311
     13    C       17.5490    1.9630   17.3100 C.3     2  LIG2       -0.0405
     14    C       18.4110   -0.5160   15.8580 C.3     2  LIG2       -0.0590
     15    C       23.5550   -1.9060   13.9200 C.2     2  LIG2       -0.0648
     16    C       22.9110   -0.3440   12.0510 C.3     2  LIG2       -0.0413
     17    C       23.7540   -1.9200   15.2500 C.2     2  LIG2       -0.0839
     18    C       21.3780   -2.2360   12.7500 C.3     2  LIG2       -0.0556
     19    C       24.5190   -2.6290   13.0060 C.3     2  LIG2       -0.0051
     20    C       23.8340   -1.1200   11.1130 C.3     2  LIG2       -0.0258
     21    C       17.1020    2.4390   18.7080 C.3     2  LIG2       -0.0502
     22    C       25.0060   -1.7320   11.8710 C.3     2  LIG2        0.0590
     23    C       17.3140    3.0870   16.2940 C.3     2  LIG2       -0.0621
     24    C       15.6720    2.9870   18.8070 C.3     2  LIG2       -0.0526
     25    C       15.2080    3.2240   20.2480 C.3     2  LIG2       -0.0507
     26    C       13.7310    3.6550   20.3520 C.3     2  LIG2       -0.0467
     27    C       13.4600    4.9950   19.6680 C.3     2  LIG2       -0.0627
     28    C       13.3200    3.7370   21.8250 C.3     2  LIG2       -0.0627
     29    H       25.2550   -3.2450   10.6290 H       2  LIG2        0.2098
     30    H       21.5580    0.9050   16.6310 H       2  LIG2        0.0309
     31    H       20.8900   -1.7100   15.5760 H       2  LIG2        0.0309
     32    H       22.3780    0.6360   14.4000 H       2  LIG2        0.0312
     33    H       19.4890    2.4770   17.2050 H       2  LIG2        0.0309
     34    H       20.2850    2.2360   14.9690 H       2  LIG2        0.0271
     35    H       18.7320    1.6650   14.3650 H       2  LIG2        0.0271
     36    H       21.3820   -0.1980   18.6560 H       2  LIG2        0.0268
     37    H       20.1930   -1.3020   18.1140 H       2  LIG2        0.0268
     38    H       19.7220   -0.2890   13.4390 H       2  LIG2        0.0268
     39    H       20.6830    1.1200   12.9290 H       2  LIG2        0.0268
     40    H       18.5760    0.1680   18.9050 H       2  LIG2        0.0268
     41    H       19.7800    1.3380   19.3010 H       2  LIG2        0.0268
     42    H       22.6840   -1.9520   17.0510 H       2  LIG2        0.0310
     43    H       23.3540   -0.3740   16.5780 H       2  LIG2        0.0310
     44    H       16.9620    1.1040   17.0580 H       2  LIG2        0.0301
     45    H       18.2430   -1.0340   16.7790 H       2  LIG2        0.0235
     46    H       18.7980   -1.1990   15.1300 H       2  LIG2        0.0235
     47    H       17.4880   -0.1060   15.5060 H       2  LIG2        0.0235
     48    H       23.4510    0.4960   12.4330 H       2  LIG2        0.0274
     49    H       22.0550   -0.0630   11.4740 H       2  LIG2        0.0274
     50    H       24.5840   -2.4200   15.6050 H       2  LIG2        0.0572
     51    H       21.0120   -2.8060   13.5780 H       2  LIG2        0.0238
     52    H       21.8710   -2.8870   12.0580 H       2  LIG2        0.0238
     53    H       20.5600   -1.7500   12.2610 H       2  LIG2        0.0238
     54    H       24.0270   -3.4810   12.5880 H       2  LIG2        0.0335
     55    H       25.3700   -2.9220   13.5860 H       2  LIG2        0.0335
     56    H       24.2120   -0.4530   10.3660 H       2  LIG2        0.0290
     57    H       23.2720   -1.9110   10.6630 H       2  LIG2        0.0290
     58    H       17.7720    3.2130   19.0190 H       2  LIG2        0.0268
     59    H       17.1210    1.5680   19.3290 H       2  LIG2        0.0268
     60    H       25.5930   -0.9470   12.2990 H       2  LIG2        0.0596
     61    H       17.9070    3.9370   16.5600 H       2  LIG2        0.0233
     62    H       16.2790    3.3600   16.2960 H       2  LIG2        0.0233
     63    H       17.5920    2.7500   15.3170 H       2  LIG2        0.0233
     64    H       15.0070    2.2840   18.3490 H       2  LIG2        0.0265
     65    H       15.6620    3.9350   18.3130 H       2  LIG2        0.0265
     66    H       15.8160    3.9920   20.6780 H       2  LIG2        0.0268
     67    H       15.3030    2.2940   20.7680 H       2  LIG2        0.0268
     68    H       13.1490    2.9150   19.8440 H       2  LIG2        0.0295
     69    H       14.0280    5.7630   20.1510 H       2  LIG2        0.0232
     70    H       12.4180    5.2250   19.7360 H       2  LIG2        0.0232
     71    H       13.7460    4.9340   18.6390 H       2  LIG2        0.0232
     72    H       13.9090    4.4800   22.3190 H       2  LIG2        0.0232
     73    H       13.4770    2.7880   22.2930 H       2  LIG2        0.0232
     74    H       12.2850    4.0000   21.8920 H       2  LIG2        0.0232
@<TRIPOS>BOND
     1    56    20    1
     2    29     1    1
     3    57    20    1
     4     1    22    1
     5    20    22    1
     6    20    16    1
     7    49    16    1
     8    22    60    1
     9    22    19    1
    10    16    48    1
    11    16     8    1
    12    52    18    1
    13    53    18    1
    14    54    19    1
    15    18     8    1
    16    18    51    1
    17    39    10    1
    18    19    55    1
    19    19    15    1
    20     8    15    1
    21     8     5    1
    22    38    10    1
    23    10     5    1
    24    10     7    1
    25    15    17    2
    26     5    32    1
    27     5     4    1
    28    35     7    1
    29     7    34    1
    30     7     2    1
    31    46    14    1
    32    17    50    1
    33    17    12    1
    34    63    23    1
    35    47    14    1
    36    31     4    1
    37     4    12    1
    38     4     3    1
    39    14     2    1
    40    14    45    1
    41     2     3    1
    42     2     6    1
    43    12    43    1
    44    12    42    1
    45    23    62    1
    46    23    61    1
    47    23    13    1
    48     3    30    1
    49     3     9    1
    50    44    13    1
    51    33     6    1
    52     6    13    1
    53     6    11    1
    54    13    21    1
    55     9    37    1
    56     9    11    1
    57     9    36    1
    58    65    24    1
    59    64    24    1
    60    11    40    1
    61    11    41    1
    62    71    27    1
    63    21    24    1
    64    21    58    1
    65    21    59    1
    66    24    25    1
    67    27    70    1
    68    27    69    1
    69    27    26    1
    70    68    26    1
    71    25    26    1
    72    25    66    1
    73    25    67    1
    74    26    28    1
    75    28    74    1
    76    28    73    1
    77    28    72    1
@<TRIPOS>MOLECULE
ligand_44bce0cbfe_1_run_24.pdb
 74 77 0 0 0
SMALL
GASTEIGER

@<TRIPOS>ATOM
      1    O       24.3720   -4.0480   13.0000 O.3     2  LIG2       -0.3915
      2    C       18.9160    1.3000   17.2520 C.3     2  LIG2       -0.0259
      3    C       18.9560    1.1620   15.7170 C.3     2  LIG2       -0.0320
      4    C       20.2950    0.6380   15.1890 C.3     2  LIG2       -0.0307
      5    C       20.6010   -0.7460   15.8320 C.3     2  LIG2       -0.0285
      6    C       17.4940    1.8900   17.4120 C.3     2  LIG2       -0.0328
      7    C       19.1000   -0.1030   17.8450 C.3     2  LIG2       -0.0468
      8    C       21.9950   -1.3140   15.3490 C.3     2  LIG2       -0.0078
      9    C       18.4470    2.5110   15.2180 C.3     2  LIG2       -0.0492
     10    C       20.4160   -0.7460   17.3750 C.3     2  LIG2       -0.0486
     11    C       17.3980    2.9270   16.2670 C.3     2  LIG2       -0.0492
     12    C       20.2660    0.5140   13.6590 C.3     2  LIG2       -0.0311
     13    C       17.1500    2.4780   18.7730 C.3     2  LIG2       -0.0405
     14    C       19.9880    2.2600   17.8260 C.3     2  LIG2       -0.0590
     15    C       22.1640   -1.1290   13.8340 C.2     2  LIG2       -0.0648
     16    C       22.0460   -2.8340   15.6850 C.3     2  LIG2       -0.0413
     17    C       21.3740   -0.3220   13.1040 C.2     2  LIG2       -0.0839
     18    C       23.1710   -0.5940   16.0520 C.3     2  LIG2       -0.0556
     19    C       23.2710   -1.9090   13.1630 C.3     2  LIG2       -0.0051
     20    C       23.2120   -3.5830   15.0400 C.3     2  LIG2       -0.0258
     21    C       15.8970    3.3770   18.7360 C.3     2  LIG2       -0.0502
     22    C       23.2250   -3.3900   13.5290 C.3     2  LIG2        0.0590
     23    C       16.9340    1.3520   19.7920 C.3     2  LIG2       -0.0621
     24    C       15.4100    3.9110   20.0900 C.3     2  LIG2       -0.0526
     25    C       14.2640    4.9200   19.9730 C.3     2  LIG2       -0.0507
     26    C       13.8410    5.5270   21.3250 C.3     2  LIG2       -0.0467
     27    C       13.2510    4.4870   22.2770 C.3     2  LIG2       -0.0627
     28    C       12.8250    6.6480   21.0940 C.3     2  LIG2       -0.0627
     29    H       24.3400   -4.0250   12.0310 H       2  LIG2        0.2098
     30    H       18.3270    0.3910   15.3210 H       2  LIG2        0.0309
     31    H       21.0650    1.3320   15.4530 H       2  LIG2        0.0309
     32    H       19.8640   -1.4360   15.4760 H       2  LIG2        0.0312
     33    H       16.7650    1.1100   17.3520 H       2  LIG2        0.0309
     34    H       18.2820   -0.7210   17.5380 H       2  LIG2        0.0271
     35    H       19.1310   -0.0150   18.9110 H       2  LIG2        0.0271
     36    H       18.0000    2.4150   14.2510 H       2  LIG2        0.0268
     37    H       19.2300    3.2320   15.1130 H       2  LIG2        0.0268
     38    H       21.2300   -0.2050   17.8120 H       2  LIG2        0.0268
     39    H       20.3910   -1.7700   17.6860 H       2  LIG2        0.0268
     40    H       17.6110    3.9080   16.6370 H       2  LIG2        0.0268
     41    H       16.4140    2.9500   15.8460 H       2  LIG2        0.0268
     42    H       20.3400    1.4960   13.2390 H       2  LIG2        0.0310
     43    H       19.3480    0.0290   13.4010 H       2  LIG2        0.0310
     44    H       17.9780    3.0900   19.0630 H       2  LIG2        0.0301
     45    H       19.8540    3.2350   17.4080 H       2  LIG2        0.0235
     46    H       20.9630    1.8960   17.5770 H       2  LIG2        0.0235
     47    H       19.8880    2.3110   18.8900 H       2  LIG2        0.0235
     48    H       21.1340   -3.2820   15.3500 H       2  LIG2        0.0274
     49    H       22.1830   -2.9090   16.7430 H       2  LIG2        0.0274
     50    H       21.5460   -0.2760   12.0870 H       2  LIG2        0.0572
     51    H       23.1380    0.4500   15.8230 H       2  LIG2        0.0238
     52    H       24.0970   -1.0060   15.7090 H       2  LIG2        0.0238
     53    H       23.0900   -0.7300   17.1100 H       2  LIG2        0.0238
     54    H       24.2140   -1.5050   13.4690 H       2  LIG2        0.0335
     55    H       23.1420   -1.8240   12.1040 H       2  LIG2        0.0335
     56    H       23.1180   -4.6270   15.2580 H       2  LIG2        0.0290
     57    H       24.1250   -3.1940   15.4390 H       2  LIG2        0.0290
     58    H       15.1000    2.8100   18.3020 H       2  LIG2        0.0268
     59    H       16.1780    4.2410   18.1700 H       2  LIG2        0.0268
     60    H       22.3290   -3.8040   13.1160 H       2  LIG2        0.0596
     61    H       16.1030    0.7500   19.4870 H       2  LIG2        0.0233
     62    H       16.7340    1.7750   20.7540 H       2  LIG2        0.0233
     63    H       17.8130    0.7450   19.8440 H       2  LIG2        0.0233
     64    H       16.2330    4.3880   20.5810 H       2  LIG2        0.0265
     65    H       15.0380    3.0740   20.6440 H       2  LIG2        0.0265
     66    H       13.4180    4.4240   19.5440 H       2  LIG2        0.0268
     67    H       14.6130    5.7260   19.3610 H       2  LIG2        0.0268
     68    H       14.7250    5.9150   21.7880 H       2  LIG2        0.0295
     69    H       12.3620    4.0740   21.8470 H       2  LIG2        0.0232
     70    H       13.0120    4.9520   23.2110 H       2  LIG2        0.0232
     71    H       13.9640    3.7060   22.4400 H       2  LIG2        0.0232
     72    H       11.9480    6.2450   20.6320 H       2  LIG2        0.0232
     73    H       13.2540    7.3930   20.4560 H       2  LIG2        0.0232
     74    H       12.5620    7.0910   22.0320 H       2  LIG2        0.0232
@<TRIPOS>BOND
     1    29     1    1
     2    50    17    1
     3    55    19    1
     4     1    22    1
     5    17    12    1
     6    17    15    2
     7    60    22    1
     8    19    54    1
     9    19    22    1
    10    19    15    1
    11    42    12    1
    12    43    12    1
    13    22    20    1
    14    12     4    1
    15    15     8    1
    16    36     9    1
    17    20    56    1
    18    20    57    1
    19    20    16    1
    20    37     9    1
    21     4    31    1
    22     4     3    1
    23     4     5    1
    24     9     3    1
    25     9    11    1
    26    30     3    1
    27     8    16    1
    28     8     5    1
    29     8    18    1
    30    48    16    1
    31    32     5    1
    32    16    49    1
    33    52    18    1
    34     3     2    1
    35    51    18    1
    36     5    10    1
    37    41    11    1
    38    18    53    1
    39    11    40    1
    40    11     6    1
    41     2     6    1
    42     2    14    1
    43     2     7    1
    44    33     6    1
    45    10    39    1
    46    10    38    1
    47    10     7    1
    48    45    14    1
    49     6    13    1
    50    34     7    1
    51    46    14    1
    52    14    47    1
    53     7    35    1
    54    59    21    1
    55    58    21    1
    56    21    13    1
    57    21    24    1
    58    13    44    1
    59    13    23    1
    60    67    25    1
    61    61    23    1
    62    66    25    1
    63    23    63    1
    64    23    62    1
    65    25    24    1
    66    25    26    1
    67    24    64    1
    68    24    65    1
    69    73    28    1
    70    72    28    1
    71    28    26    1
    72    28    74    1
    73    26    68    1
    74    26    27    1
    75    69    27    1
    76    27    71    1
    77    27    70    1
@<TRIPOS>MOLECULE
ligand_44bce0cbfe_1_run_24.pdb
 74 77 0 0 0
SMALL
GASTEIGER

@<TRIPOS>ATOM
      1    O       11.5000    5.4100   22.0900 O.3     2  LIG2       -0.3915
      2    C       18.1790    2.3200   17.3690 C.3     2  LIG2       -0.0259
      3    C       17.9850    2.0290   18.8700 C.3     2  LIG2       -0.0320
      4    C       17.1260    3.0760   19.5850 C.3     2  LIG2       -0.0307
      5    C       15.7310    3.1590   18.8990 C.3     2  LIG2       -0.0285
      6    C       19.1120    1.1400   17.0040 C.3     2  LIG2       -0.0328
      7    C       16.7950    2.2730   16.7080 C.3     2  LIG2       -0.0468
      8    C       14.8170    4.2560   19.5780 C.3     2  LIG2       -0.0078
      9    C       19.4020    1.7720   19.3750 C.3     2  LIG2       -0.0492
     10    C       15.8280    3.2810   17.3530 C.3     2  LIG2       -0.0486
     11    C       20.1010    1.0750   18.1920 C.3     2  LIG2       -0.0492
     12    C       16.9640    2.7240   21.0710 C.3     2  LIG2       -0.0311
     13    C       19.8110    1.2160   15.6540 C.3     2  LIG2       -0.0405
     14    C       18.8580    3.6810   17.0730 C.3     2  LIG2       -0.0590
     15    C       14.9040    4.1690   21.1080 C.2     2  LIG2       -0.0648
     16    C       13.3440    4.0050   19.1370 C.3     2  LIG2       -0.0413
     17    C       15.8590    3.4710   21.7470 C.2     2  LIG2       -0.0839
     18    C       15.2420    5.6830   19.1550 C.3     2  LIG2       -0.0556
     19    C       13.8510    4.9060   21.9030 C.3     2  LIG2       -0.0051
     20    C       12.3070    4.8100   19.9180 C.3     2  LIG2       -0.0258
     21    C       21.0090    0.2500   15.5470 C.3     2  LIG2       -0.0502
     22    C       12.4410    4.5780   21.4180 C.3     2  LIG2        0.0590
     23    C       18.8140    0.9110   14.5290 C.3     2  LIG2       -0.0621
     24    C       20.6760   -1.2470   15.6250 C.3     2  LIG2       -0.0526
     25    C       21.9150   -2.1480   15.6320 C.3     2  LIG2       -0.0507
     26    C       21.5880   -3.6400   15.4200 C.3     2  LIG2       -0.0467
     27    C       20.7270   -4.2180   16.5430 C.3     2  LIG2       -0.0627
     28    C       22.8870   -4.4420   15.3020 C.3     2  LIG2       -0.0627
     29    H       10.6090    5.2310   21.7500 H       2  LIG2        0.2098
     30    H       17.3840    1.1700   19.0850 H       2  LIG2        0.0309
     31    H       17.6130    4.0260   19.5190 H       2  LIG2        0.0309
     32    H       15.2370    2.2240   19.0620 H       2  LIG2        0.0312
     33    H       18.5370    0.2470   16.8700 H       2  LIG2        0.0309
     34    H       16.3920    1.2880   16.8140 H       2  LIG2        0.0271
     35    H       16.9070    2.5290   15.6750 H       2  LIG2        0.0271
     36    H       19.3900    1.1370   20.2360 H       2  LIG2        0.0268
     37    H       19.9000    2.6700   19.6760 H       2  LIG2        0.0268
     38    H       16.1610    4.2690   17.1140 H       2  LIG2        0.0268
     39    H       14.8540    3.0710   16.9630 H       2  LIG2        0.0268
     40    H       21.0090    1.5850   17.9450 H       2  LIG2        0.0268
     41    H       20.3560    0.0640   18.4310 H       2  LIG2        0.0268
     42    H       17.8810    2.9490   21.5740 H       2  LIG2        0.0310
     43    H       16.7150    1.6840   21.1210 H       2  LIG2        0.0310
     44    H       20.1890    2.2120   15.5580 H       2  LIG2        0.0301
     45    H       19.8220    3.7060   17.5370 H       2  LIG2        0.0235
     46    H       18.2540    4.4730   17.4630 H       2  LIG2        0.0235
     47    H       18.9670    3.8030   16.0160 H       2  LIG2        0.0235
     48    H       13.1280    2.9650   19.2670 H       2  LIG2        0.0274
     49    H       13.2720    4.3210   18.1170 H       2  LIG2        0.0274
     50    H       15.8270    3.4480   22.7790 H       2  LIG2        0.0572
     51    H       16.2530    5.8580   19.4570 H       2  LIG2        0.0238
     52    H       14.6010    6.4000   19.6250 H       2  LIG2        0.0238
     53    H       15.1650    5.7780   18.0920 H       2  LIG2        0.0238
     54    H       14.0150    5.9590   21.8030 H       2  LIG2        0.0335
     55    H       13.9300    4.6000   22.9250 H       2  LIG2        0.0335
     56    H       11.3270    4.5130   19.6050 H       2  LIG2        0.0290
     57    H       12.4680    5.8500   19.7210 H       2  LIG2        0.0290
     58    H       21.6850    0.4770   16.3460 H       2  LIG2        0.0268
     59    H       21.4180    0.4040   14.5710 H       2  LIG2        0.0268
     60    H       12.2510    3.5460   21.6300 H       2  LIG2        0.0596
     61    H       18.4460   -0.0880   14.6400 H       2  LIG2        0.0233
     62    H       19.3040    1.0080   13.5830 H       2  LIG2        0.0233
     63    H       17.9970    1.6000   14.5800 H       2  LIG2        0.0233
     64    H       20.0750   -1.5050   14.7790 H       2  LIG2        0.0265
     65    H       20.1640   -1.4080   16.5510 H       2  LIG2        0.0265
     66    H       22.4070   -2.0400   16.5760 H       2  LIG2        0.0268
     67    H       22.5340   -1.8410   14.8160 H       2  LIG2        0.0268
     68    H       21.0220   -3.7130   14.5150 H       2  LIG2        0.0295
     69    H       21.2620   -4.1620   17.4680 H       2  LIG2        0.0232
     70    H       20.4980   -5.2410   16.3250 H       2  LIG2        0.0232
     71    H       19.8190   -3.6580   16.6210 H       2  LIG2        0.0232
     72    H       23.4410   -4.3590   16.2140 H       2  LIG2        0.0232
     73    H       23.4720   -4.0570   14.4930 H       2  LIG2        0.0232
     74    H       22.6560   -5.4700   15.1180 H       2  LIG2        0.0232
@<TRIPOS>BOND
     1    62    23    1
     2    73    28    1
     3    68    26    1
     4    23    63    1
     5    23    61    1
     6    23    13    1
     7    59    21    1
     8    64    24    1
     9    67    25    1
    10    74    28    1
    11    28    26    1
    12    28    72    1
    13    26    25    1
    14    26    27    1
    15    21    24    1
    16    21    13    1
    17    21    58    1
    18    44    13    1
    19    24    25    1
    20    24    65    1
    21    25    66    1
    22    13     6    1
    23    35     7    1
    24    47    14    1
    25    70    27    1
    26    27    71    1
    27    27    69    1
    28     7    34    1
    29     7    10    1
    30     7     2    1
    31    33     6    1
    32    39    10    1
    33     6     2    1
    34     6    11    1
    35    14     2    1
    36    14    46    1
    37    14    45    1
    38    38    10    1
    39    10     5    1
    40     2     3    1
    41    40    11    1
    42    53    18    1
    43    49    16    1
    44    11    41    1
    45    11     9    1
    46     3    30    1
    47     3     9    1
    48     3     4    1
    49     5    32    1
    50     5     8    1
    51     5     4    1
    52    16    48    1
    53    16     8    1
    54    16    20    1
    55    18    51    1
    56    18     8    1
    57    18    52    1
    58     9    37    1
    59     9    36    1
    60    31     4    1
    61     8    15    1
    62     4    12    1
    63    56    20    1
    64    57    20    1
    65    20    22    1
    66    12    43    1
    67    12    42    1
    68    12    17    1
    69    15    17    2
    70    15    19    1
    71    22    60    1
    72    22    19    1
    73    22     1    1
    74    17    50    1
    75    29     1    1
    76    54    19    1
    77    19    55    1
