65094
     RDKit          3D

 29 32  0  0  1  0  0  0  0  0999 V2000
   -0.9095   -5.1382   -3.0006 O   0  0  0  0  0  0  0  0  0  0  0  0
  -11.8043    3.9369   -0.9861 O   0  0  0  0  0  0  0  0  0  0  0  0
   -7.3210   -1.5202   -1.9095 C   0  0  1  0  0  0  0  0  0  0  0  0
   -6.3712   -1.1168   -3.0163 C   0  0  2  0  0  0  0  0  0  0  0  0
   -5.1640   -1.9804   -3.1665 C   0  0  1  0  0  0  0  0  0  0  0  0
   -5.4799   -3.4417   -3.1321 C   0  0  1  0  0  0  0  0  0  0  0  0
   -8.3939   -0.4767   -2.1378 C   0  0  2  0  0  0  0  0  0  0  0  0
   -7.7344   -2.9151   -2.2649 C   0  0  0  0  0  0  0  0  0  0  0  0
   -4.1665   -4.1728   -2.9641 C   0  0  2  0  0  0  0  0  0  0  0  0
   -6.1097    0.2935   -2.6096 C   0  0  0  0  0  0  0  0  0  0  0  0
   -6.5289   -3.8168   -2.1397 C   0  0  0  0  0  0  0  0  0  0  0  0
   -7.5682    0.7509   -2.4394 C   0  0  0  0  0  0  0  0  0  0  0  0
   -4.5520   -1.6630   -4.5147 C   0  0  0  0  0  0  0  0  0  0  0  0
   -9.3129   -0.2498   -1.0548 C   0  0  1  0  0  0  0  0  0  0  0  0
   -6.6352   -1.4215   -0.5958 C   0  0  0  0  0  0  0  0  0  0  0  0
   -3.4256   -3.8539   -4.2293 C   0  0  0  0  0  0  0  0  0  0  0  0
   -4.3184   -5.6523   -2.9162 C   0  0  0  0  0  0  0  0  0  0  0  0
   -3.6206   -2.7308   -4.8921 C   0  0  0  0  0  0  0  0  0  0  0  0
   -3.4905   -3.6759   -1.7360 C   0  0  0  0  0  0  0  0  0  0  0  0
   -2.4646   -4.8517   -4.7338 C   0  0  0  0  0  0  0  0  0  0  0  0
   -3.0044   -6.3472   -2.8304 C   0  0  0  0  0  0  0  0  0  0  0  0
  -10.1506    0.9636   -1.1000 C   0  0  0  0  0  0  0  0  0  0  0  0
   -1.9290   -5.7830   -3.7071 C   0  0  2  0  0  0  0  0  0  0  0  0
  -10.2389   -1.3989   -0.6830 C   0  0  0  0  0  0  0  0  0  0  0  0
  -11.1148    1.2007    0.0217 C   0  0  0  0  0  0  0  0  0  0  0  0
  -12.4355    1.6668   -0.6470 C   0  0  0  0  0  0  0  0  0  0  0  0
  -12.6792    3.1169   -0.2880 C   0  0  1  0  0  0  0  0  0  0  0  0
  -12.4353    3.2537    1.1963 C   0  0  0  0  0  0  0  0  0  0  0  0
  -14.1120    3.5189   -0.6246 C   0  0  0  0  0  0  0  0  0  0  0  0
 23  1  1  1
  2 27  1  0
  3  4  1  0
  3  7  1  0
  3  8  1  0
  3 15  1  1
  4  5  1  0
  4 10  1  1
  5  6  1  0
  5 13  1  6
  6  9  1  0
  6 11  1  1
  7 12  1  1
  7 14  1  0
  8 11  1  0
  9 16  1  0
  9 17  1  0
  9 19  1  1
 10 12  1  0
 13 18  1  0
 14 22  1  0
 14 24  1  6
 16 18  2  0
 16 20  1  0
 17 21  1  0
 20 23  1  0
 21 23  1  0
 22 25  1  0
 25 26  1  0
 26 27  1  0
 27 28  1  1
 27 29  1  0
M  END
>  <PUBCHEM_COMPOUND_CID>  (1) 
65094

>  <PUBCHEM_CONFORMER_RMSD>  (1) 
0.8

>  <PUBCHEM_CONFORMER_DIVERSEORDER>  (1) 
1
10
14
9
15
7
4
12
16
6
11
8
5
3
13
2

>  <PUBCHEM_MMFF94_PARTIAL_CHARGES>  (1) 
12
1 -0.68
13 0.14
16 -0.28
18 -0.29
2 -0.68
20 0.14
23 0.28
27 0.28
50 0.15
66 0.4
75 0.4
9 0.14

>  <PUBCHEM_EFFECTIVE_ROTOR_COUNT>  (1) 
7

>  <PUBCHEM_PHARMACOPHORE_FEATURES>  (1) 
11
1 1 acceptor
1 1 donor
1 2 acceptor
1 2 donor
1 24 hydrophobe
3 27 28 29 hydrophobe
4 14 22 25 26 hydrophobe
5 3 4 7 10 12 rings
6 3 4 5 6 8 11 rings
6 5 6 9 13 16 18 rings
6 9 16 17 20 21 23 rings

>  <PUBCHEM_HEAVY_ATOM_COUNT>  (1) 
29

>  <PUBCHEM_ATOM_DEF_STEREO_COUNT>  (1) 
8

>  <PUBCHEM_ATOM_UDEF_STEREO_COUNT>  (1) 
0

>  <PUBCHEM_BOND_DEF_STEREO_COUNT>  (1) 
0

>  <PUBCHEM_BOND_UDEF_STEREO_COUNT>  (1) 
0

>  <PUBCHEM_ISOTOPIC_ATOM_COUNT>  (1) 
0

>  <PUBCHEM_COMPONENT_COUNT>  (1) 
1

>  <PUBCHEM_CACTVS_TAUTO_COUNT>  (1) 
1

>  <PUBCHEM_CONFORMER_ID>  (1) 
0000FE4600000001

>  <PUBCHEM_MMFF94_ENERGY>  (1) 
89.6627

>  <PUBCHEM_FEATURE_SELFOVERLAP>  (1) 
55.92

>  <PUBCHEM_SHAPE_FINGERPRINT>  (1) 
10 15 17846491552207809880
10190206 1 11963379722631613239
10554248 39 9727088481864723913
10693767 8 15357965747048972272
10906281 52 14261345903658200184
11456790 92 15554445163835368482
11646440 116 16774075163868762224
11963148 33 18261103037525755682
12011746 2 12829498008889697172
12035758 1 17489864938331883134
12166972 35 17603307063449984749
12236239 1 17023189275701478700
13540713 4 17058385673873202789
13540713 5 16556475348711789165
13668630 136 16660363714711911779
13782708 43 18334294240709150315
13947930 73 18263934405080180995
14068700 675 18260550048191609357
14251764 18 14907889492666546397
14849402 71 15410317966481651899
14931854 50 12324241620984765112
15082195 135 8070027804983646342
15183329 4 13118275976144190149
15188451 53 18261109677850071671
15238133 3 12391506473517100446
15510800 12 18114478811555295491
16728433 281 8502388757636489463
16994733 274 11527945647268153383
18222031 100 15574712491380999764
18608769 82 18059856186061860374
19611394 137 18201999949398457706
20028762 73 18113616772626607386
20105231 36 17346605154067217062
21267235 1 17489312949826098052
21424621 283 11455893563868198205
21521239 73 15429755089892486883
21623969 137 17775850103181565711
21637258 2 18040151816652655597
21756936 100 13110957631271826069
21781051 124 18131080333544025542
21781055 127 15123522436689448864
22122407 14 13398341442977700499
22149856 69 17560537139619450625
22224240 67 16271928221133936103
23569914 152 12904870604262074643
23569943 247 17686900515377487570
23576562 1 12396884236502325763
255183 313 16774075202813573151
2747138 104 17989210330446409480
2838139 119 7925642064259136835
3009799 131 12901546844977631733
3178227 256 17346877862561592618
3383291 50 18410014360242261035
3633792 109 14634589363301511822
392239 28 16702013201896722561
397830 11 18341603862846328129
4340502 62 17203609285338100390
465052 167 18411699894033551644
5104073 3 17416976023472684347
5385378 56 15410901734220502572
59682541 35 17989199365616384026
6009941 240 18129098931796691697
6086070 43 17313094220567959373
999808 66 18272931609412669907

>  <PUBCHEM_SHAPE_MULTIPOLES>  (1) 
585.07
19.83
2.26
1.92
14.2
0.2
0.13
-15.42
-9.01
2.6
-0.23
-0.73
-0.28
0.96

>  <PUBCHEM_SHAPE_SELFOVERLAP>  (1) 
1215.088

>  <PUBCHEM_SHAPE_VOLUME>  (1) 
333.7

>  <PUBCHEM_COORDINATE_TYPE>  (1) 
2
5
10

$$$$
