# Top-energy pose of compounds ranked according to the score (given in kcal/mol).
@<TRIPOS>MOLECULE
ligand_74eb49e976_1_run_8.pdb
 74 77 0 0 0
SMALL
GASTEIGER

@<TRIPOS>ATOM
      1    O       -0.9730   -7.8440    4.3480 O.3     2  LIG2       -0.3915
      2    C       -6.0410   -3.1330   -0.9970 C.3     2  LIG2       -0.0259
      3    C       -6.4560   -3.5510    0.4280 C.3     2  LIG2       -0.0320
      4    C       -5.7060   -4.7840    0.9410 C.3     2  LIG2       -0.0307
      5    C       -4.1740   -4.5070    0.9180 C.3     2  LIG2       -0.0285
      6    C       -7.0100   -1.9430   -1.1990 C.3     2  LIG2       -0.0328
      7    C       -4.5550   -2.7520   -0.9510 C.3     2  LIG2       -0.0468
      8    C       -3.3510   -5.7670    1.4030 C.3     2  LIG2       -0.0078
      9    C       -7.9800   -3.5920    0.3640 C.3     2  LIG2       -0.0492
     10    C       -3.6910   -3.9160   -0.4350 C.3     2  LIG2       -0.0486
     11    C       -8.3450   -2.4540   -0.6080 C.3     2  LIG2       -0.0492
     12    C       -6.1570   -5.1420    2.3640 C.3     2  LIG2       -0.0311
     13    C       -7.1540   -1.4160   -2.6200 C.3     2  LIG2       -0.0405
     14    C       -6.2710   -4.2290   -2.0670 C.3     2  LIG2       -0.0590
     15    C       -3.9900   -6.3880    2.6530 C.2     2  LIG2       -0.0648
     16    C       -1.9050   -5.3020    1.7480 C.3     2  LIG2       -0.0413
     17    C       -5.2330   -6.0840    3.0680 C.2     2  LIG2       -0.0839
     18    C       -3.2910   -6.8570    0.3060 C.3     2  LIG2       -0.0556
     19    C       -3.1560   -7.3760    3.4370 C.3     2  LIG2       -0.0051
     20    C       -1.0670   -6.3450    2.4850 C.3     2  LIG2       -0.0258
     21    C       -8.4430   -0.5930   -2.8240 C.3     2  LIG2       -0.0502
     22    C       -1.7680   -6.8240    3.7510 C.3     2  LIG2        0.0590
     23    C       -5.9400   -0.5540   -2.9860 C.3     2  LIG2       -0.0621
     24    C       -8.5470    0.7050   -2.0110 C.3     2  LIG2       -0.0526
     25    C       -9.9610    1.2950   -1.9810 C.3     2  LIG2       -0.0507
     26    C      -10.9140    0.5500   -1.0260 C.3     2  LIG2       -0.0467
     27    C      -12.3860    0.7710   -1.3750 C.3     2  LIG2       -0.0627
     28    C      -10.6550    0.9980    0.4150 C.3     2  LIG2       -0.0627
     29    H       -1.2480   -7.9700    5.2700 H       2  LIG2        0.2098
     30    H       -6.1640   -2.8680    1.1970 H       2  LIG2        0.0309
     31    H       -5.9280   -5.6140    0.3020 H       2  LIG2        0.0309
     32    H       -3.9770   -3.7350    1.6320 H       2  LIG2        0.0312
     33    H       -6.6250   -1.0710   -0.7120 H       2  LIG2        0.0309
     34    H       -4.4320   -1.9120   -0.3000 H       2  LIG2        0.0271
     35    H       -4.2390   -2.5140   -1.9450 H       2  LIG2        0.0271
     36    H       -8.4060   -3.4180    1.3300 H       2  LIG2        0.0268
     37    H       -8.3530   -4.5420    0.0420 H       2  LIG2        0.0268
     38    H       -3.7030   -4.6960   -1.1680 H       2  LIG2        0.0268
     39    H       -2.7090   -3.5240   -0.2700 H       2  LIG2        0.0268
     40    H       -8.9790   -2.8210   -1.3880 H       2  LIG2        0.0268
     41    H       -8.8740   -1.6700   -0.1080 H       2  LIG2        0.0268
     42    H       -7.1240   -5.5970    2.3080 H       2  LIG2        0.0310
     43    H       -6.1660   -4.2330    2.9280 H       2  LIG2        0.0310
     44    H       -7.2120   -2.2710   -3.2620 H       2  LIG2        0.0301
     45    H       -7.3080   -4.4900   -2.0940 H       2  LIG2        0.0235
     46    H       -5.6920   -5.0950   -1.8220 H       2  LIG2        0.0235
     47    H       -5.9710   -3.8600   -3.0260 H       2  LIG2        0.0235
     48    H       -1.9720   -4.4290    2.3630 H       2  LIG2        0.0274
     49    H       -1.4130   -5.1180    0.8160 H       2  LIG2        0.0274
     50    H       -5.5730   -6.5320    3.9330 H       2  LIG2        0.0572
     51    H       -4.2830   -7.1780    0.0680 H       2  LIG2        0.0238
     52    H       -2.7220   -7.6900    0.6630 H       2  LIG2        0.0238
     53    H       -2.8250   -6.4560   -0.5700 H       2  LIG2        0.0238
     54    H       -3.0500   -8.2720    2.8620 H       2  LIG2        0.0335
     55    H       -3.6540   -7.5700    4.3640 H       2  LIG2        0.0335
     56    H       -0.1260   -5.9110    2.7510 H       2  LIG2        0.0290
     57    H       -0.9260   -7.1850    1.8380 H       2  LIG2        0.0290
     58    H       -9.2730   -1.2130   -2.5570 H       2  LIG2        0.0268
     59    H       -8.4340   -0.2910   -3.8500 H       2  LIG2        0.0268
     60    H       -1.8860   -5.9970    4.4190 H       2  LIG2        0.0596
     61    H       -5.8970    0.2950   -2.3360 H       2  LIG2        0.0233
     62    H       -6.0310   -0.2230   -4.0000 H       2  LIG2        0.0233
     63    H       -5.0460   -1.1320   -2.8780 H       2  LIG2        0.0233
     64    H       -7.8870    1.4290   -2.4430 H       2  LIG2        0.0265
     65    H       -8.2840    0.4680   -1.0020 H       2  LIG2        0.0265
     66    H      -10.3680    1.2500   -2.9700 H       2  LIG2        0.0268
     67    H       -9.8760    2.3000   -1.6240 H       2  LIG2        0.0268
     68    H      -10.7150   -0.4950   -1.1320 H       2  LIG2        0.0295
     69    H      -12.6240    1.8100   -1.2800 H       2  LIG2        0.0232
     70    H      -13.0000    0.2020   -0.7080 H       2  LIG2        0.0232
     71    H      -12.5650    0.4540   -2.3820 H       2  LIG2        0.0232
     72    H      -10.8590    2.0440    0.5060 H       2  LIG2        0.0232
     73    H       -9.6330    0.8100    0.6690 H       2  LIG2        0.0232
     74    H      -11.2930    0.4520    1.0780 H       2  LIG2        0.0232
@<TRIPOS>BOND
     1    62    23    1
     2    59    21    1
     3    44    13    1
     4    47    14    1
     5    23    63    1
     6    23    13    1
     7    23    61    1
     8    66    25    1
     9    21    13    1
    10    21    58    1
    11    21    24    1
    12    13     6    1
    13    64    24    1
    14    71    27    1
    15    45    14    1
    16    14    46    1
    17    14     2    1
    18    24    25    1
    19    24    65    1
    20    25    67    1
    21    25    26    1
    22    35     7    1
    23    40    11    1
    24    27    69    1
    25    27    26    1
    26    27    70    1
    27     6     2    1
    28     6    33    1
    29     6    11    1
    30    38    10    1
    31    68    26    1
    32    26    28    1
    33     2     7    1
    34     2     3    1
    35     7    10    1
    36     7    34    1
    37    11    41    1
    38    11     9    1
    39    53    18    1
    40    10    39    1
    41    10     5    1
    42    37     9    1
    43    51    18    1
    44    31     4    1
    45    18    52    1
    46    18     8    1
    47     9     3    1
    48     9    36    1
    49    28    72    1
    50    28    73    1
    51    28    74    1
    52     3     4    1
    53     3    30    1
    54    49    16    1
    55     5     4    1
    56     5     8    1
    57     5    32    1
    58     4    12    1
    59     8    16    1
    60     8    15    1
    61    16    48    1
    62    16    20    1
    63    57    20    1
    64    42    12    1
    65    12    43    1
    66    12    17    1
    67    20    56    1
    68    20    22    1
    69    15    17    2
    70    15    19    1
    71    54    19    1
    72    17    50    1
    73    19    22    1
    74    19    55    1
    75    22     1    1
    76    22    60    1
    77     1    29    1
