@<TRIPOS>MOLECULE
ligand_74eb49e976_1_run_8.pdb
 74 77 0 0 0
SMALL
GASTEIGER

@<TRIPOS>ATOM
      1    O       -0.9730   -7.8440    4.3480 O.3     2  LIG2       -0.3915
      2    C       -6.0410   -3.1330   -0.9970 C.3     2  LIG2       -0.0259
      3    C       -6.4560   -3.5510    0.4280 C.3     2  LIG2       -0.0320
      4    C       -5.7060   -4.7840    0.9410 C.3     2  LIG2       -0.0307
      5    C       -4.1740   -4.5070    0.9180 C.3     2  LIG2       -0.0285
      6    C       -7.0100   -1.9430   -1.1990 C.3     2  LIG2       -0.0328
      7    C       -4.5550   -2.7520   -0.9510 C.3     2  LIG2       -0.0468
      8    C       -3.3510   -5.7670    1.4030 C.3     2  LIG2       -0.0078
      9    C       -7.9800   -3.5920    0.3640 C.3     2  LIG2       -0.0492
     10    C       -3.6910   -3.9160   -0.4350 C.3     2  LIG2       -0.0486
     11    C       -8.3450   -2.4540   -0.6080 C.3     2  LIG2       -0.0492
     12    C       -6.1570   -5.1420    2.3640 C.3     2  LIG2       -0.0311
     13    C       -7.1540   -1.4160   -2.6200 C.3     2  LIG2       -0.0405
     14    C       -6.2710   -4.2290   -2.0670 C.3     2  LIG2       -0.0590
     15    C       -3.9900   -6.3880    2.6530 C.2     2  LIG2       -0.0648
     16    C       -1.9050   -5.3020    1.7480 C.3     2  LIG2       -0.0413
     17    C       -5.2330   -6.0840    3.0680 C.2     2  LIG2       -0.0839
     18    C       -3.2910   -6.8570    0.3060 C.3     2  LIG2       -0.0556
     19    C       -3.1560   -7.3760    3.4370 C.3     2  LIG2       -0.0051
     20    C       -1.0670   -6.3450    2.4850 C.3     2  LIG2       -0.0258
     21    C       -8.4430   -0.5930   -2.8240 C.3     2  LIG2       -0.0502
     22    C       -1.7680   -6.8240    3.7510 C.3     2  LIG2        0.0590
     23    C       -5.9400   -0.5540   -2.9860 C.3     2  LIG2       -0.0621
     24    C       -8.5470    0.7050   -2.0110 C.3     2  LIG2       -0.0526
     25    C       -9.9610    1.2950   -1.9810 C.3     2  LIG2       -0.0507
     26    C      -10.9140    0.5500   -1.0260 C.3     2  LIG2       -0.0467
     27    C      -12.3860    0.7710   -1.3750 C.3     2  LIG2       -0.0627
     28    C      -10.6550    0.9980    0.4150 C.3     2  LIG2       -0.0627
     29    H       -1.2480   -7.9700    5.2700 H       2  LIG2        0.2098
     30    H       -6.1640   -2.8680    1.1970 H       2  LIG2        0.0309
     31    H       -5.9280   -5.6140    0.3020 H       2  LIG2        0.0309
     32    H       -3.9770   -3.7350    1.6320 H       2  LIG2        0.0312
     33    H       -6.6250   -1.0710   -0.7120 H       2  LIG2        0.0309
     34    H       -4.4320   -1.9120   -0.3000 H       2  LIG2        0.0271
     35    H       -4.2390   -2.5140   -1.9450 H       2  LIG2        0.0271
     36    H       -8.4060   -3.4180    1.3300 H       2  LIG2        0.0268
     37    H       -8.3530   -4.5420    0.0420 H       2  LIG2        0.0268
     38    H       -3.7030   -4.6960   -1.1680 H       2  LIG2        0.0268
     39    H       -2.7090   -3.5240   -0.2700 H       2  LIG2        0.0268
     40    H       -8.9790   -2.8210   -1.3880 H       2  LIG2        0.0268
     41    H       -8.8740   -1.6700   -0.1080 H       2  LIG2        0.0268
     42    H       -7.1240   -5.5970    2.3080 H       2  LIG2        0.0310
     43    H       -6.1660   -4.2330    2.9280 H       2  LIG2        0.0310
     44    H       -7.2120   -2.2710   -3.2620 H       2  LIG2        0.0301
     45    H       -7.3080   -4.4900   -2.0940 H       2  LIG2        0.0235
     46    H       -5.6920   -5.0950   -1.8220 H       2  LIG2        0.0235
     47    H       -5.9710   -3.8600   -3.0260 H       2  LIG2        0.0235
     48    H       -1.9720   -4.4290    2.3630 H       2  LIG2        0.0274
     49    H       -1.4130   -5.1180    0.8160 H       2  LIG2        0.0274
     50    H       -5.5730   -6.5320    3.9330 H       2  LIG2        0.0572
     51    H       -4.2830   -7.1780    0.0680 H       2  LIG2        0.0238
     52    H       -2.7220   -7.6900    0.6630 H       2  LIG2        0.0238
     53    H       -2.8250   -6.4560   -0.5700 H       2  LIG2        0.0238
     54    H       -3.0500   -8.2720    2.8620 H       2  LIG2        0.0335
     55    H       -3.6540   -7.5700    4.3640 H       2  LIG2        0.0335
     56    H       -0.1260   -5.9110    2.7510 H       2  LIG2        0.0290
     57    H       -0.9260   -7.1850    1.8380 H       2  LIG2        0.0290
     58    H       -9.2730   -1.2130   -2.5570 H       2  LIG2        0.0268
     59    H       -8.4340   -0.2910   -3.8500 H       2  LIG2        0.0268
     60    H       -1.8860   -5.9970    4.4190 H       2  LIG2        0.0596
     61    H       -5.8970    0.2950   -2.3360 H       2  LIG2        0.0233
     62    H       -6.0310   -0.2230   -4.0000 H       2  LIG2        0.0233
     63    H       -5.0460   -1.1320   -2.8780 H       2  LIG2        0.0233
     64    H       -7.8870    1.4290   -2.4430 H       2  LIG2        0.0265
     65    H       -8.2840    0.4680   -1.0020 H       2  LIG2        0.0265
     66    H      -10.3680    1.2500   -2.9700 H       2  LIG2        0.0268
     67    H       -9.8760    2.3000   -1.6240 H       2  LIG2        0.0268
     68    H      -10.7150   -0.4950   -1.1320 H       2  LIG2        0.0295
     69    H      -12.6240    1.8100   -1.2800 H       2  LIG2        0.0232
     70    H      -13.0000    0.2020   -0.7080 H       2  LIG2        0.0232
     71    H      -12.5650    0.4540   -2.3820 H       2  LIG2        0.0232
     72    H      -10.8590    2.0440    0.5060 H       2  LIG2        0.0232
     73    H       -9.6330    0.8100    0.6690 H       2  LIG2        0.0232
     74    H      -11.2930    0.4520    1.0780 H       2  LIG2        0.0232
@<TRIPOS>BOND
     1    62    23    1
     2    59    21    1
     3    44    13    1
     4    47    14    1
     5    23    63    1
     6    23    13    1
     7    23    61    1
     8    66    25    1
     9    21    13    1
    10    21    58    1
    11    21    24    1
    12    13     6    1
    13    64    24    1
    14    71    27    1
    15    45    14    1
    16    14    46    1
    17    14     2    1
    18    24    25    1
    19    24    65    1
    20    25    67    1
    21    25    26    1
    22    35     7    1
    23    40    11    1
    24    27    69    1
    25    27    26    1
    26    27    70    1
    27     6     2    1
    28     6    33    1
    29     6    11    1
    30    38    10    1
    31    68    26    1
    32    26    28    1
    33     2     7    1
    34     2     3    1
    35     7    10    1
    36     7    34    1
    37    11    41    1
    38    11     9    1
    39    53    18    1
    40    10    39    1
    41    10     5    1
    42    37     9    1
    43    51    18    1
    44    31     4    1
    45    18    52    1
    46    18     8    1
    47     9     3    1
    48     9    36    1
    49    28    72    1
    50    28    73    1
    51    28    74    1
    52     3     4    1
    53     3    30    1
    54    49    16    1
    55     5     4    1
    56     5     8    1
    57     5    32    1
    58     4    12    1
    59     8    16    1
    60     8    15    1
    61    16    48    1
    62    16    20    1
    63    57    20    1
    64    42    12    1
    65    12    43    1
    66    12    17    1
    67    20    56    1
    68    20    22    1
    69    15    17    2
    70    15    19    1
    71    54    19    1
    72    17    50    1
    73    19    22    1
    74    19    55    1
    75    22     1    1
    76    22    60    1
    77     1    29    1
@<TRIPOS>MOLECULE
ligand_74eb49e976_1_run_20.pdb
 74 77 0 0 0
SMALL
GASTEIGER

@<TRIPOS>ATOM
      1    O        2.3670   -7.2790    1.2480 O.3     2  LIG2       -0.3915
      2    C       -5.2470   -3.6540   -1.0570 C.3     2  LIG2       -0.0259
      3    C       -4.7620   -3.7710    0.4020 C.3     2  LIG2       -0.0320
      4    C       -3.7360   -4.8880    0.6120 C.3     2  LIG2       -0.0307
      5    C       -2.5080   -4.6460   -0.3150 C.3     2  LIG2       -0.0285
      6    C       -6.2790   -2.5120   -0.8850 C.3     2  LIG2       -0.0328
      7    C       -4.0300   -3.2960   -1.9200 C.3     2  LIG2       -0.0468
      8    C       -1.4340   -5.7970   -0.1640 C.3     2  LIG2       -0.0078
      9    C       -6.0550   -3.7990    1.2120 C.3     2  LIG2       -0.0492
     10    C       -2.9140   -4.3460   -1.7840 C.3     2  LIG2       -0.0486
     11    C       -7.0070   -2.8720    0.4320 C.3     2  LIG2       -0.0492
     12    C       -3.2870   -4.9460    2.0790 C.3     2  LIG2       -0.0311
     13    C       -7.2360   -2.2790   -2.0460 C.3     2  LIG2       -0.0405
     14    C       -5.9200   -4.9380   -1.6020 C.3     2  LIG2       -0.0590
     15    C       -1.2100   -6.1440    1.3150 C.2     2  LIG2       -0.0648
     16    C       -0.0930   -5.2960   -0.7780 C.3     2  LIG2       -0.0413
     17    C       -2.0400   -5.7420    2.2940 C.2     2  LIG2       -0.0839
     18    C       -1.8820   -7.0850   -0.8940 C.3     2  LIG2       -0.0556
     19    C        0.0110   -6.9690    1.6530 C.3     2  LIG2       -0.0051
     20    C        1.1120   -6.1830   -0.4690 C.3     2  LIG2       -0.0258
     21    C       -8.4990   -1.4970   -1.6300 C.3     2  LIG2       -0.0502
     22    C        1.2780   -6.3870    1.0320 C.3     2  LIG2        0.0590
     23    C       -6.5210   -1.5220   -3.1720 C.3     2  LIG2       -0.0621
     24    C       -8.2670   -0.0720   -1.1070 C.3     2  LIG2       -0.0526
     25    C       -9.3560    0.4090   -0.1430 C.3     2  LIG2       -0.0507
     26    C      -10.7790    0.3040   -0.7260 C.3     2  LIG2       -0.0467
     27    C      -10.9960    1.2330   -1.9200 C.3     2  LIG2       -0.0627
     28    C      -11.8080    0.6180    0.3640 C.3     2  LIG2       -0.0627
     29    H        3.1420   -6.9700    0.7520 H       2  LIG2        0.2098
     30    H       -4.1630   -2.9520    0.7400 H       2  LIG2        0.0309
     31    H       -4.1900   -5.8250    0.3650 H       2  LIG2        0.0309
     32    H       -2.0270   -3.7500    0.0170 H       2  LIG2        0.0312
     33    H       -5.7780   -1.5670   -0.8590 H       2  LIG2        0.0309
     34    H       -3.6520   -2.3440   -1.6100 H       2  LIG2        0.0271
     35    H       -4.3410   -3.2660   -2.9440 H       2  LIG2        0.0271
     36    H       -5.8910   -3.4280    2.2020 H       2  LIG2        0.0268
     37    H       -6.4470   -4.7880    1.3270 H       2  LIG2        0.0268
     38    H       -3.2520   -5.2570   -2.2330 H       2  LIG2        0.0268
     39    H       -2.0490   -3.9450   -2.2700 H       2  LIG2        0.0268
     40    H       -7.9260   -3.3780    0.2210 H       2  LIG2        0.0268
     41    H       -7.2460   -1.9950    0.9960 H       2  LIG2        0.0268
     42    H       -4.0730   -5.3870    2.6560 H       2  LIG2        0.0310
     43    H       -3.0730   -3.9420    2.3810 H       2  LIG2        0.0310
     44    H       -7.5500   -3.2440   -2.3850 H       2  LIG2        0.0301
     45    H       -6.7680   -5.1820   -0.9960 H       2  LIG2        0.0235
     46    H       -5.2200   -5.7460   -1.5770 H       2  LIG2        0.0235
     47    H       -6.2390   -4.7730   -2.6100 H       2  LIG2        0.0235
     48    H        0.1050   -4.3160   -0.3950 H       2  LIG2        0.0274
     49    H       -0.2190   -5.3100   -1.8400 H       2  LIG2        0.0274
     50    H       -1.7990   -6.0030    3.2630 H       2  LIG2        0.0572
     51    H       -2.8030   -7.4320   -0.4750 H       2  LIG2        0.0238
     52    H       -1.1320   -7.8390   -0.7800 H       2  LIG2        0.0238
     53    H       -2.0210   -6.8750   -1.9350 H       2  LIG2        0.0238
     54    H       -0.1300   -7.9630    1.2850 H       2  LIG2        0.0335
     55    H        0.1300   -6.9650    2.7160 H       2  LIG2        0.0335
     56    H        1.9950   -5.7200   -0.8580 H       2  LIG2        0.0290
     57    H        0.9540   -7.1380   -0.9250 H       2  LIG2        0.0290
     58    H       -8.9890   -2.0530   -0.8580 H       2  LIG2        0.0268
     59    H       -9.0770   -1.3850   -2.5240 H       2  LIG2        0.0268
     60    H        1.4680   -5.4410    1.4940 H       2  LIG2        0.0596
     61    H       -6.2130   -0.5610   -2.8160 H       2  LIG2        0.0233
     62    H       -7.1880   -1.4000   -3.9990 H       2  LIG2        0.0233
     63    H       -5.6620   -2.0780   -3.4860 H       2  LIG2        0.0233
     64    H       -8.2360    0.5950   -1.9430 H       2  LIG2        0.0265
     65    H       -7.3460   -0.0830   -0.5620 H       2  LIG2        0.0265
     66    H       -9.1640    1.4330    0.1010 H       2  LIG2        0.0268
     67    H       -9.3190   -0.2250    0.7180 H       2  LIG2        0.0268
     68    H      -10.9040   -0.6990   -1.0760 H       2  LIG2        0.0295
     69    H      -10.8790    2.2500   -1.6070 H       2  LIG2        0.0232
     70    H      -11.9830    1.0910   -2.3080 H       2  LIG2        0.0232
     71    H      -10.2780    1.0100   -2.6810 H       2  LIG2        0.0232
     72    H      -11.6710    1.6230    0.7040 H       2  LIG2        0.0232
     73    H      -11.6770   -0.0570    1.1840 H       2  LIG2        0.0232
     74    H      -12.7950    0.5080   -0.0350 H       2  LIG2        0.0232
@<TRIPOS>BOND
     1    62    23    1
     2    63    23    1
     3    23    61    1
     4    23    13    1
     5    35     7    1
     6    71    27    1
     7    47    14    1
     8    59    21    1
     9    44    13    1
    10    70    27    1
    11    39    10    1
    12    38    10    1
    13    13    21    1
    14    13     6    1
    15    64    24    1
    16    53    18    1
    17    27    69    1
    18    27    26    1
    19     7    10    1
    20     7    34    1
    21     7     2    1
    22    49    16    1
    23    10     5    1
    24    21    24    1
    25    21    58    1
    26    14    46    1
    27    14     2    1
    28    14    45    1
    29    24    65    1
    30    24    25    1
    31    68    26    1
    32     2     6    1
    33     2     3    1
    34    57    20    1
    35    18    52    1
    36    18    51    1
    37    18     8    1
    38     6    33    1
    39     6    11    1
    40    56    20    1
    41    16    20    1
    42    16    48    1
    43    16     8    1
    44    26    25    1
    45    26    28    1
    46    20    22    1
    47     5     8    1
    48     5    32    1
    49     5     4    1
    50     8    15    1
    51    25    66    1
    52    25    67    1
    53    74    28    1
    54    40    11    1
    55    28    72    1
    56    28    73    1
    57    31     4    1
    58     3     4    1
    59     3    30    1
    60     3     9    1
    61    11    41    1
    62    11     9    1
    63     4    12    1
    64    29     1    1
    65    22     1    1
    66    22    60    1
    67    22    19    1
    68     9    37    1
    69     9    36    1
    70    54    19    1
    71    15    19    1
    72    15    17    2
    73    19    55    1
    74    12    17    1
    75    12    43    1
    76    12    42    1
    77    17    50    1
@<TRIPOS>MOLECULE
ligand_74eb49e976_1_run_15.pdb
 74 77 0 0 0
SMALL
GASTEIGER

@<TRIPOS>ATOM
      1    O       -8.7500   -5.2810   -0.9660 O.3     2  LIG2       -0.3915
      2    C       -0.0090   -5.2970   -0.7360 C.3     2  LIG2       -0.0259
      3    C       -0.8990   -5.3920    0.5200 C.3     2  LIG2       -0.0320
      4    C       -2.3050   -4.8230    0.3110 C.3     2  LIG2       -0.0307
      5    C       -3.0010   -5.5730   -0.8620 C.3     2  LIG2       -0.0285
      6    C        1.3010   -5.8840   -0.1580 C.3     2  LIG2       -0.0328
      7    C       -0.6660   -6.1480   -1.8310 C.3     2  LIG2       -0.0468
      8    C       -4.4450   -4.9950   -1.1430 C.3     2  LIG2       -0.0078
      9    C       -0.0260   -4.8070    1.6270 C.3     2  LIG2       -0.0492
     10    C       -2.1020   -5.6780   -2.1250 C.3     2  LIG2       -0.0486
     11    C        1.4030   -5.2390    1.2450 C.3     2  LIG2       -0.0492
     12    C       -3.1420   -4.9550    1.5920 C.3     2  LIG2       -0.0311
     13    C        2.5600   -5.6900   -0.9910 C.3     2  LIG2       -0.0405
     14    C        0.2040   -3.8510   -1.2490 C.3     2  LIG2       -0.0590
     15    C       -5.2080   -4.7700    0.1690 C.2     2  LIG2       -0.0648
     16    C       -5.2230   -6.0270   -2.0140 C.3     2  LIG2       -0.0413
     17    C       -4.6090   -4.7700    1.3730 C.2     2  LIG2       -0.0839
     18    C       -4.3750   -3.6430   -1.8930 C.3     2  LIG2       -0.0556
     19    C       -6.7000   -4.5480    0.0710 C.3     2  LIG2       -0.0051
     20    C       -6.7180   -5.7410   -2.1440 C.3     2  LIG2       -0.0258
     21    C        3.8540   -5.8900   -0.1740 C.3     2  LIG2       -0.0502
     22    C       -7.3790   -5.6200   -0.7770 C.3     2  LIG2        0.0590
     23    C        2.5580   -6.6600   -2.1790 C.3     2  LIG2       -0.0621
     24    C        5.1700   -5.6900   -0.9380 C.3     2  LIG2       -0.0526
     25    C        6.4070   -5.6980   -0.0350 C.3     2  LIG2       -0.0507
     26    C        7.7100   -5.3440   -0.7780 C.3     2  LIG2       -0.0467
     27    C        8.0400   -6.3380   -1.8920 C.3     2  LIG2       -0.0627
     28    C        8.8730   -5.2820    0.2170 C.3     2  LIG2       -0.0627
     29    H       -8.8150   -4.3740   -1.3020 H       2  LIG2        0.2098
     30    H       -1.1790   -6.3870    0.7950 H       2  LIG2        0.0309
     31    H       -2.2250   -3.7830    0.0720 H       2  LIG2        0.0309
     32    H       -3.1460   -6.5870   -0.5530 H       2  LIG2        0.0312
     33    H        1.2480   -6.9520   -0.1410 H       2  LIG2        0.0309
     34    H       -0.6940   -7.1680   -1.5090 H       2  LIG2        0.0271
     35    H       -0.0900   -6.0460   -2.7270 H       2  LIG2        0.0271
     36    H       -0.3020   -5.2070    2.5800 H       2  LIG2        0.0268
     37    H       -0.1260   -3.7450    1.7110 H       2  LIG2        0.0268
     38    H       -2.0530   -4.7130   -2.5850 H       2  LIG2        0.0268
     39    H       -2.5460   -6.4140   -2.7620 H       2  LIG2        0.0268
     40    H        2.0520   -4.3890    1.2160 H       2  LIG2        0.0268
     41    H        1.8060   -5.9250    1.9600 H       2  LIG2        0.0268
     42    H       -2.8090   -4.2160    2.2910 H       2  LIG2        0.0310
     43    H       -3.0020   -5.9520    1.9550 H       2  LIG2        0.0310
     44    H        2.5490   -4.6770   -1.3360 H       2  LIG2        0.0301
     45    H        0.6620   -3.2640   -0.4810 H       2  LIG2        0.0235
     46    H       -0.7410   -3.4220   -1.5100 H       2  LIG2        0.0235
     47    H        0.8380   -3.8680   -2.1110 H       2  LIG2        0.0235
     48    H       -5.1040   -6.9940   -1.5720 H       2  LIG2        0.0274
     49    H       -4.8120   -5.9650   -3.0000 H       2  LIG2        0.0274
     50    H       -5.2040   -4.6340    2.2050 H       2  LIG2        0.0572
     51    H       -3.8410   -2.9320   -1.2970 H       2  LIG2        0.0238
     52    H       -5.3660   -3.2840   -2.0740 H       2  LIG2        0.0238
     53    H       -3.8680   -3.7790   -2.8260 H       2  LIG2        0.0238
     54    H       -6.8800   -3.5910   -0.3730 H       2  LIG2        0.0335
     55    H       -7.1090   -4.5970    1.0590 H       2  LIG2        0.0335
     56    H       -7.1800   -6.5410   -2.6850 H       2  LIG2        0.0290
     57    H       -6.8410   -4.8130   -2.6620 H       2  LIG2        0.0290
     58    H        3.8470   -6.8880    0.2100 H       2  LIG2        0.0268
     59    H        3.8390   -5.1300    0.5790 H       2  LIG2        0.0268
     60    H       -7.2890   -6.5540   -0.2610 H       2  LIG2        0.0596
     61    H        2.5690   -7.6660   -1.8170 H       2  LIG2        0.0233
     62    H        3.4250   -6.4870   -2.7820 H       2  LIG2        0.0233
     63    H        1.6780   -6.5020   -2.7670 H       2  LIG2        0.0233
     64    H        5.1280   -4.7490   -1.4460 H       2  LIG2        0.0265
     65    H        5.2690   -6.5120   -1.6160 H       2  LIG2        0.0265
     66    H        6.5120   -6.6760    0.3870 H       2  LIG2        0.0268
     67    H        6.2570   -4.9490    0.7140 H       2  LIG2        0.0268
     68    H        7.5630   -4.3890   -1.2380 H       2  LIG2        0.0295
     69    H        8.1950   -7.3090   -1.4690 H       2  LIG2        0.0232
     70    H        8.9290   -6.0240   -2.3980 H       2  LIG2        0.0232
     71    H        7.2280   -6.3780   -2.5870 H       2  LIG2        0.0232
     72    H        9.0080   -6.2430    0.6680 H       2  LIG2        0.0232
     73    H        8.6550   -4.5600    0.9750 H       2  LIG2        0.0232
     74    H        9.7680   -5.0000   -0.2980 H       2  LIG2        0.0232
@<TRIPOS>BOND
     1    49    16    1
     2    53    18    1
     3    62    23    1
     4    63    23    1
     5    39    10    1
     6    35     7    1
     7    56    20    1
     8    57    20    1
     9    71    27    1
    10    38    10    1
    11    70    27    1
    12    23    61    1
    13    23    13    1
    14    20    16    1
    15    20    22    1
    16    10     7    1
    17    10     5    1
    18    47    14    1
    19    52    18    1
    20    16    48    1
    21    16     8    1
    22    18    51    1
    23    18     8    1
    24    27    69    1
    25    27    26    1
    26     7    34    1
    27     7     2    1
    28    65    24    1
    29    46    14    1
    30    64    24    1
    31    44    13    1
    32    29     1    1
    33    14     2    1
    34    14    45    1
    35    68    26    1
    36     8     5    1
    37     8    15    1
    38    13    21    1
    39    13     6    1
    40     1    22    1
    41    24    21    1
    42    24    25    1
    43     5    32    1
    44     5     4    1
    45    26    25    1
    46    26    28    1
    47    22    60    1
    48    22    19    1
    49     2     6    1
    50     2     3    1
    51    54    19    1
    52    74    28    1
    53    21    58    1
    54    21    59    1
    55     6    33    1
    56     6    11    1
    57    25    66    1
    58    25    67    1
    59    19    15    1
    60    19    55    1
    61    31     4    1
    62    15    17    2
    63    28    72    1
    64    28    73    1
    65     4     3    1
    66     4    12    1
    67     3    30    1
    68     3     9    1
    69    40    11    1
    70    11     9    1
    71    11    41    1
    72    17    12    1
    73    17    50    1
    74    12    43    1
    75    12    42    1
    76     9    37    1
    77     9    36    1
