# created with PyMOL 2.5.4
@<TRIPOS>MOLECULE
ligand_ced197c005_1_run_19
57 60 1                 
SMALL
USER_CHARGES
@<TRIPOS>ATOM
1	   C	-7.109	-1.629	-1.146	C.3	1	LIG2	0.000	
2	   C	-8.254	-1.660	-0.123	C.3	1	LIG2	0.000	
3	   C	-8.284	-2.924	0.653	C.3	1	LIG2	0.000	
4	   C	-6.935	-3.255	1.184	C.3	1	LIG2	0.000	
5	   C	-7.377	-0.275	-1.739	C.3	1	LIG2	0.000	
6	   C	-9.411	-1.413	-1.027	C.3	1	LIG2	0.000	
7	   C	-5.844	-1.749	-0.387	C.3	1	LIG2	0.000	
8	   C	-8.886	-0.372	-2.003	C.3	1	LIG2	0.000	
9	   C	-5.804	-3.125	0.242	C.3	1	LIG2	0.000	
10	   C	-7.044	-4.671	1.762	C.3	1	LIG2	0.000	
11	   C	-9.267	-2.773	1.775	C.3	1	LIG2	0.000	
12	   C	-7.299	-2.664	-2.208	C.3	1	LIG2	0.000	
13	   C	-9.224	-3.848	2.810	C.3	1	LIG2	0.000	
14	   C	-7.903	-4.489	2.953	C.3	1	LIG2	0.000	
15	   C	-6.615	0.018	-2.950	C.2	1	LIG2	0.000	
16	   C	-9.562	0.946	-1.649	C.3	1	LIG2	0.000	
17	   C	-7.825	-5.567	0.820	C.3	1	LIG2	0.000	
18	   C	-5.759	-5.297	2.017	C.3	1	LIG2	0.000	
19	   C	-7.500	-4.882	4.145	C.3	1	LIG2	0.000	
20	   C	-5.346	0.778	-2.879	C.3	1	LIG2	0.000	
21	   C	-5.337	-5.697	3.199	C.3	1	LIG2	0.000	
22	   C	-6.211	-5.502	4.346	C.2	1	LIG2	0.000	
23	   O	-7.231	0.692	-0.748	O.3	1	LIG2	0.000	
24	   O	-5.695	-4.131	-0.697	O.3	1	LIG2	0.000	
25	   O	-7.002	-0.353	-4.036	O.2	1	LIG2	0.000	
26	   O	-4.715	0.753	-4.101	O.3	1	LIG2	0.000	
27	   O	-5.816	-5.886	5.500	O.2	1	LIG2	0.000	
28	   F	-6.695	-2.420	2.275	 F	1	LIG2	0.000	
29	   H	-7.284	1.575	-1.146	 H	1	LIG2	0.000	
30	   H	-4.887	-4.001	-1.218	 H	1	LIG2	0.000	
31	   H	-5.241	1.250	-4.747	 H	1	LIG2	0.000	
32	   H	-8.200	-0.951	0.677	 H	1	LIG2	0.000	
33	   H	-8.583	-3.727	0.013	 H	1	LIG2	0.000	
34	   H	-10.250	-1.036	-0.481	 H	1	LIG2	0.000	
35	   H	-9.755	-2.302	-1.514	 H	1	LIG2	0.000	
36	   H	-5.806	-1.000	0.376	 H	1	LIG2	0.000	
37	   H	-5.006	-1.614	-1.038	 H	1	LIG2	0.000	
38	   H	-9.077	-0.611	-3.028	 H	1	LIG2	0.000	
39	   H	-4.909	-3.241	0.818	 H	1	LIG2	0.000	
40	   H	-10.250	-2.759	1.353	 H	1	LIG2	0.000	
41	   H	-9.003	-1.867	2.279	 H	1	LIG2	0.000	
42	   H	-8.234	-2.500	-2.702	 H	1	LIG2	0.000	
43	   H	-7.296	-3.637	-1.763	 H	1	LIG2	0.000	
44	   H	-6.503	-2.595	-2.919	 H	1	LIG2	0.000	
45	   H	-9.936	-4.601	2.543	 H	1	LIG2	0.000	
46	   H	-9.447	-3.385	3.748	 H	1	LIG2	0.000	
47	   H	-9.369	1.182	-0.624	 H	1	LIG2	0.000	
48	   H	-10.617	0.858	-1.803	 H	1	LIG2	0.000	
49	   H	-9.174	1.724	-2.273	 H	1	LIG2	0.000	
50	   H	-8.778	-5.125	0.616	 H	1	LIG2	0.000	
51	   H	-7.966	-6.525	1.274	 H	1	LIG2	0.000	
52	   H	-7.282	-5.682	-0.095	 H	1	LIG2	0.000	
53	   H	-5.129	-5.440	1.212	 H	1	LIG2	0.000	
54	   H	-8.122	-4.742	4.956	 H	1	LIG2	0.000	
55	   H	-5.555	1.792	-2.609	 H	1	LIG2	0.000	
56	   H	-4.709	0.331	-2.145	 H	1	LIG2	0.000	
57	   H	-4.410	-6.136	3.308	 H	1	LIG2	0.000	
@<TRIPOS>BOND
1 1 2 1
2 1 5 1
3 1 7 1
4 1 12 1
5 2 3 1
6 2 6 1
7 2 32 1
8 3 4 1
9 3 11 1
10 3 33 1
11 4 9 1
12 4 10 1
13 5 8 1
14 5 15 1
15 6 8 1
16 6 34 1
17 6 35 1
18 7 9 1
19 7 36 1
20 7 37 1
21 8 16 1
22 8 38 1
23 9 39 1
24 10 14 1
25 10 17 1
26 10 18 1
27 11 13 1
28 11 40 1
29 11 41 1
30 12 42 1
31 12 43 1
32 12 44 1
33 13 14 1
34 13 45 1
35 13 46 1
36 14 19 1
37 15 20 1
38 16 47 1
39 16 48 1
40 16 49 1
41 17 50 1
42 17 51 1
43 17 52 1
44 18 21 1
45 18 53 1
46 19 22 1
47 19 54 1
48 20 55 1
49 20 56 1
50 21 22 1
51 21 57 1
52 5 23 1
53 23 29 1
54 9 24 1
55 24 30 1
56 15 25 2
57 20 26 1
58 26 31 1
59 22 27 2
60 4 28 1
@<TRIPOS>SUBSTRUCTURE
1	LIG2	1	GROUP	1 L	LIG
