# Top-energy pose of compounds ranked according to the score (given in kcal/mol).
@<TRIPOS>MOLECULE
ligand_0ee9ca009d_1_run_18.pdb
 74 77 0 0 0
SMALL
GASTEIGER

@<TRIPOS>ATOM
      1    O       -6.2620   21.6730    6.9990 O.3     2  LIG2       -0.3915
      2    C        0.9390   18.3220   10.6560 C.3     2  LIG2       -0.0259
      3    C       -0.4890   18.0360   11.1600 C.3     2  LIG2       -0.0320
      4    C       -1.5010   19.1150   10.7630 C.3     2  LIG2       -0.0307
      5    C       -1.5280   19.2570    9.2130 C.3     2  LIG2       -0.0285
      6    C        1.6690   17.1050   11.2730 C.3     2  LIG2       -0.0328
      7    C        0.8920   18.3330    9.1220 C.3     2  LIG2       -0.0468
      8    C       -2.5310   20.3890    8.7530 C.3     2  LIG2       -0.0078
      9    C       -0.2940   17.7210   12.6400 C.3     2  LIG2       -0.0492
     10    C       -0.1070   19.3780    8.5960 C.3     2  LIG2       -0.0486
     11    C        1.0660   16.9980   12.6930 C.3     2  LIG2       -0.0492
     12    C       -2.9020   18.7680   11.2860 C.3     2  LIG2       -0.0311
     13    C        3.1910   17.1550   11.2790 C.3     2  LIG2       -0.0405
     14    C        1.5350   19.6540   11.1740 C.3     2  LIG2       -0.0590
     15    C       -3.8520   20.2960    9.5270 C.2     2  LIG2       -0.0648
     16    C       -2.8170   20.1990    7.2330 C.3     2  LIG2       -0.0413
     17    C       -3.9960   19.5580   10.6430 C.2     2  LIG2       -0.0839
     18    C       -1.9360   21.7980    8.9890 C.3     2  LIG2       -0.0556
     19    C       -5.0290   21.0740    8.9830 C.3     2  LIG2       -0.0051
     20    C       -3.9720   21.0450    6.6990 C.3     2  LIG2       -0.0258
     21    C        3.8180   16.1480   12.2660 C.3     2  LIG2       -0.0502
     22    C       -5.2480   20.8040    7.4960 C.3     2  LIG2        0.0590
     23    C        3.7310   16.8830    9.8700 C.3     2  LIG2       -0.0621
     24    C        5.3510   16.0820   12.2770 C.3     2  LIG2       -0.0526
     25    C        6.0190   17.4240   12.5900 C.3     2  LIG2       -0.0507
     26    C        7.5590   17.3640   12.5610 C.3     2  LIG2       -0.0467
     27    C        8.1330   16.4770   13.6660 C.3     2  LIG2       -0.0627
     28    C        8.1340   18.7780   12.6860 C.3     2  LIG2       -0.0627
     29    H       -6.2510   21.6590    6.0290 H       2  LIG2        0.2098
     30    H       -0.9700   17.2020   10.6930 H       2  LIG2        0.0309
     31    H       -1.2030   20.0450   11.2010 H       2  LIG2        0.0309
     32    H       -1.9150   18.3420    8.8140 H       2  LIG2        0.0312
     33    H        1.5110   16.2370   10.6680 H       2  LIG2        0.0309
     34    H        0.5970   17.3640    8.7760 H       2  LIG2        0.0271
     35    H        1.8660   18.5860    8.7580 H       2  LIG2        0.0271
     36    H       -1.0760   17.0850   13.0000 H       2  LIG2        0.0268
     37    H       -0.3190   18.5970   13.2540 H       2  LIG2        0.0268
     38    H        0.2760   20.3520    8.8190 H       2  LIG2        0.0268
     39    H       -0.2090   19.2090    7.5440 H       2  LIG2        0.0268
     40    H        1.7090   17.4710   13.4060 H       2  LIG2        0.0268
     41    H        0.9520   15.9770   12.9920 H       2  LIG2        0.0268
     42    H       -2.9250   18.9540   12.3400 H       2  LIG2        0.0310
     43    H       -3.0780   17.7390   11.0500 H       2  LIG2        0.0310
     44    H        3.4660   18.1380   11.6010 H       2  LIG2        0.0301
     45    H        1.5650   19.6400   12.2430 H       2  LIG2        0.0235
     46    H        0.9260   20.4700   10.8450 H       2  LIG2        0.0235
     47    H        2.5270   19.7740   10.7910 H       2  LIG2        0.0235
     48    H       -3.0490   19.1690    7.0620 H       2  LIG2        0.0274
     49    H       -1.9380   20.5200    6.7140 H       2  LIG2        0.0274
     50    H       -4.9280   19.5350   11.0860 H       2  LIG2        0.0572
     51    H       -1.7390   21.9310   10.0330 H       2  LIG2        0.0238
     52    H       -2.6350   22.5400    8.6610 H       2  LIG2        0.0238
     53    H       -1.0250   21.8980    8.4380 H       2  LIG2        0.0238
     54    H       -4.8470   22.1190    9.1220 H       2  LIG2        0.0335
     55    H       -5.9060   20.7620    9.5100 H       2  LIG2        0.0335
     56    H       -4.1470   20.7880    5.6750 H       2  LIG2        0.0290
     57    H       -3.7060   22.0770    6.7900 H       2  LIG2        0.0290
     58    H        3.4490   15.1750   12.0190 H       2  LIG2        0.0268
     59    H        3.5370   16.4880   13.2410 H       2  LIG2        0.0268
     60    H       -5.5410   19.7810    7.3870 H       2  LIG2        0.0596
     61    H        3.4470   15.8980    9.5630 H       2  LIG2        0.0233
     62    H        4.7980   16.9620    9.8750 H       2  LIG2        0.0233
     63    H        3.3240   17.6000    9.1870 H       2  LIG2        0.0233
     64    H        5.6830   15.7550   11.3130 H       2  LIG2        0.0265
     65    H        5.6320   15.4020   13.0540 H       2  LIG2        0.0265
     66    H        5.7100   17.7380   13.5650 H       2  LIG2        0.0268
     67    H        5.7150   18.1130   11.8290 H       2  LIG2        0.0268
     68    H        7.8410   16.9290   11.6250 H       2  LIG2        0.0295
     69    H        7.8700   16.8820   14.6210 H       2  LIG2        0.0232
     70    H        9.1980   16.4390   13.5750 H       2  LIG2        0.0232
     71    H        7.7320   15.4890   13.5750 H       2  LIG2        0.0232
     72    H        7.8440   19.1990   13.6250 H       2  LIG2        0.0232
     73    H        7.7580   19.3870   11.8900 H       2  LIG2        0.0232
     74    H        9.2020   18.7340   12.6280 H       2  LIG2        0.0232
@<TRIPOS>BOND
     1    56    20    1
     2    29     1    1
     3    20    57    1
     4    20    16    1
     5    20    22    1
     6    49    16    1
     7     1    22    1
     8    48    16    1
     9    16     8    1
    10    60    22    1
    11    22    19    1
    12    39    10    1
    13    53    18    1
    14    10    38    1
    15    10     7    1
    16    10     5    1
    17    52    18    1
    18     8    18    1
    19     8     5    1
    20     8    15    1
    21    35     7    1
    22    34     7    1
    23    32     5    1
    24    19    54    1
    25    19    55    1
    26    19    15    1
    27    18    51    1
    28     7     2    1
    29    63    23    1
    30     5     4    1
    31    15    17    2
    32    61    23    1
    33    23    62    1
    34    23    13    1
    35    17    50    1
    36    17    12    1
    37     2     3    1
    38     2    14    1
    39     2     6    1
    40    33     6    1
    41    30     3    1
    42     4     3    1
    43     4    31    1
    44     4    12    1
    45    47    14    1
    46    46    14    1
    47    43    12    1
    48     3     9    1
    49    14    45    1
    50     6    13    1
    51     6    11    1
    52    13    44    1
    53    13    21    1
    54    12    42    1
    55    64    24    1
    56    68    26    1
    57    67    25    1
    58    73    28    1
    59    58    21    1
    60    21    24    1
    61    21    59    1
    62    24    25    1
    63    24    65    1
    64    26    25    1
    65    26    28    1
    66    26    27    1
    67    25    66    1
    68    74    28    1
    69     9    11    1
    70     9    36    1
    71     9    37    1
    72    28    72    1
    73    11    41    1
    74    11    40    1
    75    70    27    1
    76    71    27    1
    77    27    69    1
