@<TRIPOS>MOLECULE
ligand_0ee9ca009d_1_run_18.pdb
 74 77 0 0 0
SMALL
GASTEIGER

@<TRIPOS>ATOM
      1    O       -6.2620   21.6730    6.9990 O.3     2  LIG2       -0.3915
      2    C        0.9390   18.3220   10.6560 C.3     2  LIG2       -0.0259
      3    C       -0.4890   18.0360   11.1600 C.3     2  LIG2       -0.0320
      4    C       -1.5010   19.1150   10.7630 C.3     2  LIG2       -0.0307
      5    C       -1.5280   19.2570    9.2130 C.3     2  LIG2       -0.0285
      6    C        1.6690   17.1050   11.2730 C.3     2  LIG2       -0.0328
      7    C        0.8920   18.3330    9.1220 C.3     2  LIG2       -0.0468
      8    C       -2.5310   20.3890    8.7530 C.3     2  LIG2       -0.0078
      9    C       -0.2940   17.7210   12.6400 C.3     2  LIG2       -0.0492
     10    C       -0.1070   19.3780    8.5960 C.3     2  LIG2       -0.0486
     11    C        1.0660   16.9980   12.6930 C.3     2  LIG2       -0.0492
     12    C       -2.9020   18.7680   11.2860 C.3     2  LIG2       -0.0311
     13    C        3.1910   17.1550   11.2790 C.3     2  LIG2       -0.0405
     14    C        1.5350   19.6540   11.1740 C.3     2  LIG2       -0.0590
     15    C       -3.8520   20.2960    9.5270 C.2     2  LIG2       -0.0648
     16    C       -2.8170   20.1990    7.2330 C.3     2  LIG2       -0.0413
     17    C       -3.9960   19.5580   10.6430 C.2     2  LIG2       -0.0839
     18    C       -1.9360   21.7980    8.9890 C.3     2  LIG2       -0.0556
     19    C       -5.0290   21.0740    8.9830 C.3     2  LIG2       -0.0051
     20    C       -3.9720   21.0450    6.6990 C.3     2  LIG2       -0.0258
     21    C        3.8180   16.1480   12.2660 C.3     2  LIG2       -0.0502
     22    C       -5.2480   20.8040    7.4960 C.3     2  LIG2        0.0590
     23    C        3.7310   16.8830    9.8700 C.3     2  LIG2       -0.0621
     24    C        5.3510   16.0820   12.2770 C.3     2  LIG2       -0.0526
     25    C        6.0190   17.4240   12.5900 C.3     2  LIG2       -0.0507
     26    C        7.5590   17.3640   12.5610 C.3     2  LIG2       -0.0467
     27    C        8.1330   16.4770   13.6660 C.3     2  LIG2       -0.0627
     28    C        8.1340   18.7780   12.6860 C.3     2  LIG2       -0.0627
     29    H       -6.2510   21.6590    6.0290 H       2  LIG2        0.2098
     30    H       -0.9700   17.2020   10.6930 H       2  LIG2        0.0309
     31    H       -1.2030   20.0450   11.2010 H       2  LIG2        0.0309
     32    H       -1.9150   18.3420    8.8140 H       2  LIG2        0.0312
     33    H        1.5110   16.2370   10.6680 H       2  LIG2        0.0309
     34    H        0.5970   17.3640    8.7760 H       2  LIG2        0.0271
     35    H        1.8660   18.5860    8.7580 H       2  LIG2        0.0271
     36    H       -1.0760   17.0850   13.0000 H       2  LIG2        0.0268
     37    H       -0.3190   18.5970   13.2540 H       2  LIG2        0.0268
     38    H        0.2760   20.3520    8.8190 H       2  LIG2        0.0268
     39    H       -0.2090   19.2090    7.5440 H       2  LIG2        0.0268
     40    H        1.7090   17.4710   13.4060 H       2  LIG2        0.0268
     41    H        0.9520   15.9770   12.9920 H       2  LIG2        0.0268
     42    H       -2.9250   18.9540   12.3400 H       2  LIG2        0.0310
     43    H       -3.0780   17.7390   11.0500 H       2  LIG2        0.0310
     44    H        3.4660   18.1380   11.6010 H       2  LIG2        0.0301
     45    H        1.5650   19.6400   12.2430 H       2  LIG2        0.0235
     46    H        0.9260   20.4700   10.8450 H       2  LIG2        0.0235
     47    H        2.5270   19.7740   10.7910 H       2  LIG2        0.0235
     48    H       -3.0490   19.1690    7.0620 H       2  LIG2        0.0274
     49    H       -1.9380   20.5200    6.7140 H       2  LIG2        0.0274
     50    H       -4.9280   19.5350   11.0860 H       2  LIG2        0.0572
     51    H       -1.7390   21.9310   10.0330 H       2  LIG2        0.0238
     52    H       -2.6350   22.5400    8.6610 H       2  LIG2        0.0238
     53    H       -1.0250   21.8980    8.4380 H       2  LIG2        0.0238
     54    H       -4.8470   22.1190    9.1220 H       2  LIG2        0.0335
     55    H       -5.9060   20.7620    9.5100 H       2  LIG2        0.0335
     56    H       -4.1470   20.7880    5.6750 H       2  LIG2        0.0290
     57    H       -3.7060   22.0770    6.7900 H       2  LIG2        0.0290
     58    H        3.4490   15.1750   12.0190 H       2  LIG2        0.0268
     59    H        3.5370   16.4880   13.2410 H       2  LIG2        0.0268
     60    H       -5.5410   19.7810    7.3870 H       2  LIG2        0.0596
     61    H        3.4470   15.8980    9.5630 H       2  LIG2        0.0233
     62    H        4.7980   16.9620    9.8750 H       2  LIG2        0.0233
     63    H        3.3240   17.6000    9.1870 H       2  LIG2        0.0233
     64    H        5.6830   15.7550   11.3130 H       2  LIG2        0.0265
     65    H        5.6320   15.4020   13.0540 H       2  LIG2        0.0265
     66    H        5.7100   17.7380   13.5650 H       2  LIG2        0.0268
     67    H        5.7150   18.1130   11.8290 H       2  LIG2        0.0268
     68    H        7.8410   16.9290   11.6250 H       2  LIG2        0.0295
     69    H        7.8700   16.8820   14.6210 H       2  LIG2        0.0232
     70    H        9.1980   16.4390   13.5750 H       2  LIG2        0.0232
     71    H        7.7320   15.4890   13.5750 H       2  LIG2        0.0232
     72    H        7.8440   19.1990   13.6250 H       2  LIG2        0.0232
     73    H        7.7580   19.3870   11.8900 H       2  LIG2        0.0232
     74    H        9.2020   18.7340   12.6280 H       2  LIG2        0.0232
@<TRIPOS>BOND
     1    56    20    1
     2    29     1    1
     3    20    57    1
     4    20    16    1
     5    20    22    1
     6    49    16    1
     7     1    22    1
     8    48    16    1
     9    16     8    1
    10    60    22    1
    11    22    19    1
    12    39    10    1
    13    53    18    1
    14    10    38    1
    15    10     7    1
    16    10     5    1
    17    52    18    1
    18     8    18    1
    19     8     5    1
    20     8    15    1
    21    35     7    1
    22    34     7    1
    23    32     5    1
    24    19    54    1
    25    19    55    1
    26    19    15    1
    27    18    51    1
    28     7     2    1
    29    63    23    1
    30     5     4    1
    31    15    17    2
    32    61    23    1
    33    23    62    1
    34    23    13    1
    35    17    50    1
    36    17    12    1
    37     2     3    1
    38     2    14    1
    39     2     6    1
    40    33     6    1
    41    30     3    1
    42     4     3    1
    43     4    31    1
    44     4    12    1
    45    47    14    1
    46    46    14    1
    47    43    12    1
    48     3     9    1
    49    14    45    1
    50     6    13    1
    51     6    11    1
    52    13    44    1
    53    13    21    1
    54    12    42    1
    55    64    24    1
    56    68    26    1
    57    67    25    1
    58    73    28    1
    59    58    21    1
    60    21    24    1
    61    21    59    1
    62    24    25    1
    63    24    65    1
    64    26    25    1
    65    26    28    1
    66    26    27    1
    67    25    66    1
    68    74    28    1
    69     9    11    1
    70     9    36    1
    71     9    37    1
    72    28    72    1
    73    11    41    1
    74    11    40    1
    75    70    27    1
    76    71    27    1
    77    27    69    1
@<TRIPOS>MOLECULE
ligand_0ee9ca009d_1_run_8.pdb
 74 77 0 0 0
SMALL
GASTEIGER

@<TRIPOS>ATOM
      1    O       -9.7650   20.2500   12.6760 O.3     2  LIG2       -0.3915
      2    C       -1.3870   19.4820   10.2970 C.3     2  LIG2       -0.0259
      3    C       -2.2630   20.7050    9.9620 C.3     2  LIG2       -0.0320
      4    C       -3.7630   20.3980    9.9690 C.3     2  LIG2       -0.0307
      5    C       -4.1740   19.8460   11.3650 C.3     2  LIG2       -0.0285
      6    C        0.0120   20.1260   10.1400 C.3     2  LIG2       -0.0328
      7    C       -1.7350   19.0430   11.7260 C.3     2  LIG2       -0.0468
      8    C       -5.7100   19.4750   11.4130 C.3     2  LIG2       -0.0078
      9    C       -1.6330   21.2640    8.6890 C.3     2  LIG2       -0.0492
     10    C       -3.2320   18.7150   11.8650 C.3     2  LIG2       -0.0486
     11    C       -0.1270   20.9940    8.8670 C.3     2  LIG2       -0.0492
     12    C       -4.5780   21.6560    9.6380 C.3     2  LIG2       -0.0311
     13    C        1.1980   19.1740   10.0810 C.3     2  LIG2       -0.0405
     14    C       -1.5670   18.2920    9.3220 C.3     2  LIG2       -0.0590
     15    C       -6.5560   20.5730   10.7540 C.2     2  LIG2       -0.0648
     16    C       -6.1320   19.3330   12.9050 C.3     2  LIG2       -0.0413
     17    C       -6.0290   21.5390    9.9810 C.2     2  LIG2       -0.0839
     18    C       -5.9910   18.1450   10.6720 C.3     2  LIG2       -0.0556
     19    C       -8.0460   20.5430   11.0100 C.3     2  LIG2       -0.0051
     20    C       -7.6410   19.2450   13.1270 C.3     2  LIG2       -0.0258
     21    C        2.4670   19.8360    9.5050 C.3     2  LIG2       -0.0502
     22    C       -8.3630   20.4300   12.4990 C.3     2  LIG2        0.0590
     23    C        1.5030   18.6290   11.4810 C.3     2  LIG2       -0.0621
     24    C        3.7060   18.9360    9.3980 C.3     2  LIG2       -0.0526
     25    C        3.4450   17.6240    8.6530 C.3     2  LIG2       -0.0507
     26    C        4.7330   16.8600    8.2880 C.3     2  LIG2       -0.0467
     27    C        4.4770   15.7020    7.3230 C.3     2  LIG2       -0.0627
     28    C        5.3980   16.3300    9.5610 C.3     2  LIG2       -0.0627
     29    H      -10.0380   19.4160   12.2620 H       2  LIG2        0.2098
     30    H       -2.2640   21.4720   10.7080 H       2  LIG2        0.0309
     31    H       -3.9680   19.6610    9.2200 H       2  LIG2        0.0309
     32    H       -4.0410   20.6360   12.0750 H       2  LIG2        0.0312
     33    H        0.2590   20.6830   11.0190 H       2  LIG2        0.0309
     34    H       -1.4880   19.8340   12.4020 H       2  LIG2        0.0271
     35    H       -1.1750   18.1600   11.9520 H       2  LIG2        0.0271
     36    H       -1.8240   22.3130    8.5990 H       2  LIG2        0.0268
     37    H       -2.0300   20.8140    7.8030 H       2  LIG2        0.0268
     38    H       -3.4370   17.8310   11.2980 H       2  LIG2        0.0268
     39    H       -3.4260   18.5870   12.9100 H       2  LIG2        0.0268
     40    H        0.2590   20.4700    8.0170 H       2  LIG2        0.0268
     41    H        0.4240   21.9070    8.9560 H       2  LIG2        0.0268
     42    H       -4.4940   21.8470    8.5890 H       2  LIG2        0.0310
     43    H       -4.1800   22.4520   10.2310 H       2  LIG2        0.0310
     44    H        0.9220   18.3770    9.4220 H       2  LIG2        0.0301
     45    H       -1.3220   18.6050    8.3280 H       2  LIG2        0.0235
     46    H       -2.5830   17.9580    9.3500 H       2  LIG2        0.0235
     47    H       -0.9200   17.4910    9.6130 H       2  LIG2        0.0235
     48    H       -5.7640   20.1840   13.4390 H       2  LIG2        0.0274
     49    H       -5.7170   18.4110   13.2540 H       2  LIG2        0.0274
     50    H       -6.6710   22.2500    9.5970 H       2  LIG2        0.0572
     51    H       -5.7020   18.2400    9.6470 H       2  LIG2        0.0238
     52    H       -7.0360   17.9200   10.7290 H       2  LIG2        0.0238
     53    H       -5.4310   17.3570   11.1300 H       2  LIG2        0.0238
     54    H       -8.4690   19.7020   10.5010 H       2  LIG2        0.0335
     55    H       -8.4640   21.4600   10.6500 H       2  LIG2        0.0335
     56    H       -7.8390   19.2340   14.1790 H       2  LIG2        0.0290
     57    H       -7.9990   18.3480   12.6660 H       2  LIG2        0.0290
     58    H        2.7180   20.6650   10.1340 H       2  LIG2        0.0268
     59    H        2.2200   20.1080    8.5000 H       2  LIG2        0.0268
     60    H       -8.0360   21.3310   12.9750 H       2  LIG2        0.0596
     61    H        1.7770   19.4370   12.1270 H       2  LIG2        0.0233
     62    H        2.3110   17.9290   11.4240 H       2  LIG2        0.0233
     63    H        0.6350   18.1400   11.8710 H       2  LIG2        0.0233
     64    H        4.0420   18.7030   10.3870 H       2  LIG2        0.0265
     65    H        4.4400   19.4760    8.8370 H       2  LIG2        0.0265
     66    H        2.9150   17.8460    7.7500 H       2  LIG2        0.0268
     67    H        2.8800   16.9950    9.3090 H       2  LIG2        0.0268
     68    H        5.3800   17.5510    7.7900 H       2  LIG2        0.0295
     69    H        3.8300   14.9870    7.7880 H       2  LIG2        0.0232
     70    H        5.4060   15.2330    7.0730 H       2  LIG2        0.0232
     71    H        4.0140   16.0750    6.4330 H       2  LIG2        0.0232
     72    H        4.7400   15.6410   10.0480 H       2  LIG2        0.0232
     73    H        5.6090   17.1470   10.2200 H       2  LIG2        0.0232
     74    H        6.3110   15.8330    9.3070 H       2  LIG2        0.0232
@<TRIPOS>BOND
     1    71    27    1
     2    70    27    1
     3    27    69    1
     4    27    26    1
     5    66    25    1
     6    68    26    1
     7    37     9    1
     8    40    11    1
     9    26    25    1
    10    26    28    1
    11    45    14    1
    12    59    21    1
    13    42    12    1
    14    36     9    1
    15    25    67    1
    16    25    24    1
    17     9    11    1
    18     9     3    1
    19    65    24    1
    20    11    41    1
    21    11     6    1
    22    31     4    1
    23    74    28    1
    24    14    46    1
    25    14    47    1
    26    14     2    1
    27    24    21    1
    28    24    64    1
    29    44    13    1
    30    21    13    1
    31    21    58    1
    32    28    72    1
    33    28    73    1
    34    50    17    1
    35    12     4    1
    36    12    17    1
    37    12    43    1
    38    51    18    1
    39     3     4    1
    40     3     2    1
    41     3    30    1
    42     4     5    1
    43    17    15    2
    44    13     6    1
    45    13    23    1
    46     6     2    1
    47     6    33    1
    48     2     7    1
    49    54    19    1
    50    55    19    1
    51    18    52    1
    52    18    53    1
    53    18     8    1
    54    15    19    1
    55    15     8    1
    56    19    22    1
    57    38    10    1
    58     5     8    1
    59     5    10    1
    60     5    32    1
    61     8    16    1
    62    62    23    1
    63    23    63    1
    64    23    61    1
    65     7    10    1
    66     7    35    1
    67     7    34    1
    68    10    39    1
    69    29     1    1
    70    22     1    1
    71    22    60    1
    72    22    20    1
    73    57    20    1
    74    16    20    1
    75    16    49    1
    76    16    48    1
    77    20    56    1
@<TRIPOS>MOLECULE
ligand_0ee9ca009d_1_run_18.pdb
 74 77 0 0 0
SMALL
GASTEIGER

@<TRIPOS>ATOM
      1    O      -10.3920   23.5730   12.5000 O.3     2  LIG2       -0.3915
      2    C       -2.7720   19.8450   10.3820 C.3     2  LIG2       -0.0259
      3    C       -3.4080   21.0020    9.5870 C.3     2  LIG2       -0.0320
      4    C       -4.9240   21.1090    9.7780 C.3     2  LIG2       -0.0307
      5    C       -5.2450   21.2930   11.2900 C.3     2  LIG2       -0.0285
      6    C       -1.3050   19.9990    9.9140 C.3     2  LIG2       -0.0328
      7    C       -3.0050   20.1270   11.8720 C.3     2  LIG2       -0.0468
      8    C       -6.8040   21.3690   11.5460 C.3     2  LIG2       -0.0078
      9    C       -2.8570   20.8190    8.1760 C.3     2  LIG2       -0.0492
     10    C       -4.5040   20.2670   12.1920 C.3     2  LIG2       -0.0486
     11    C       -1.4310   20.2790    8.3980 C.3     2  LIG2       -0.0492
     12    C       -5.4940   22.2830    8.9700 C.3     2  LIG2       -0.0311
     13    C       -0.3650   18.8430   10.2260 C.3     2  LIG2       -0.0405
     14    C       -3.3310   18.4470   10.0160 C.3     2  LIG2       -0.0590
     15    C       -7.4830   22.2760   10.5120 C.2     2  LIG2       -0.0648
     16    C       -7.0370   21.9560   12.9700 C.3     2  LIG2       -0.0413
     17    C       -6.8760   22.6810    9.3820 C.2     2  LIG2       -0.0839
     18    C       -7.4580   19.9690   11.4560 C.3     2  LIG2       -0.0556
     19    C       -8.8960   22.7260   10.8090 C.3     2  LIG2       -0.0051
     20    C       -8.4850   22.3440   13.2620 C.3     2  LIG2       -0.0258
     21    C        0.8880   18.8320    9.3260 C.3     2  LIG2       -0.0502
     22    C       -9.0210   23.3110   12.2140 C.3     2  LIG2        0.0590
     23    C        0.0690   18.9010   11.6960 C.3     2  LIG2       -0.0621
     24    C        1.9680   17.8040    9.6890 C.3     2  LIG2       -0.0526
     25    C        2.9870   17.5690    8.5690 C.3     2  LIG2       -0.0507
     26    C        4.0070   16.4580    8.8920 C.3     2  LIG2       -0.0467
     27    C        4.9510   16.8410   10.0320 C.3     2  LIG2       -0.0627
     28    C        4.8210   16.1230    7.6400 C.3     2  LIG2       -0.0627
     29    H      -10.4980   23.7350   13.4510 H       2  LIG2        0.2098
     30    H       -3.1450   21.9800    9.9340 H       2  LIG2        0.0309
     31    H       -5.3810   20.2080    9.4240 H       2  LIG2        0.0309
     32    H       -4.8530   22.2430   11.5890 H       2  LIG2        0.0312
     33    H       -0.8270   20.7850   10.4620 H       2  LIG2        0.0309
     34    H       -2.5060   21.0360   12.1360 H       2  LIG2        0.0271
     35    H       -2.6180   19.3030   12.4340 H       2  LIG2        0.0271
     36    H       -2.8330   21.7530    7.6530 H       2  LIG2        0.0268
     37    H       -3.4580   20.1630    7.5820 H       2  LIG2        0.0268
     38    H       -4.9660   19.3110   12.0660 H       2  LIG2        0.0268
     39    H       -4.5750   20.6280   13.1970 H       2  LIG2        0.0268
     40    H       -1.2860   19.3770    7.8410 H       2  LIG2        0.0268
     41    H       -0.6940   20.9820    8.0690 H       2  LIG2        0.0268
     42    H       -5.5170   22.0040    7.9380 H       2  LIG2        0.0310
     43    H       -4.8590   23.1250    9.1520 H       2  LIG2        0.0310
     44    H       -0.9100   17.9420   10.0330 H       2  LIG2        0.0301
     45    H       -3.1660   18.2580    8.9760 H       2  LIG2        0.0235
     46    H       -4.3810   18.4180   10.2210 H       2  LIG2        0.0235
     47    H       -2.8330   17.7000   10.5980 H       2  LIG2        0.0235
     48    H       -6.4280   22.8290   13.0760 H       2  LIG2        0.0274
     49    H       -6.7810   21.1830   13.6650 H       2  LIG2        0.0274
     50    H       -7.4000   23.3100    8.7540 H       2  LIG2        0.0572
     51    H       -7.2990   19.5630   10.4790 H       2  LIG2        0.0238
     52    H       -8.5090   20.0540   11.6410 H       2  LIG2        0.0238
     53    H       -7.0190   19.3220   12.1870 H       2  LIG2        0.0238
     54    H       -9.5520   21.8850   10.7240 H       2  LIG2        0.0335
     55    H       -9.1560   23.4900   10.1070 H       2  LIG2        0.0335
     56    H       -8.5340   22.8110   14.2240 H       2  LIG2        0.0290
     57    H       -9.0840   21.4570   13.2420 H       2  LIG2        0.0290
     58    H        1.3330   19.8040    9.3730 H       2  LIG2        0.0268
     59    H        0.5420   18.5560    8.3530 H       2  LIG2        0.0268
     60    H       -8.4490   24.2140   12.2470 H       2  LIG2        0.0596
     61    H        0.6110   19.8060   11.8730 H       2  LIG2        0.0233
     62    H        0.6950   18.0610   11.9170 H       2  LIG2        0.0233
     63    H       -0.7970   18.8750   12.3250 H       2  LIG2        0.0233
     64    H        1.4890   16.8730    9.9110 H       2  LIG2        0.0265
     65    H        2.5060   18.1940   10.5270 H       2  LIG2        0.0265
     66    H        3.5210   18.4800    8.4000 H       2  LIG2        0.0268
     67    H        2.4400   17.2540    7.7050 H       2  LIG2        0.0268
     68    H        3.4510   15.6030    9.2140 H       2  LIG2        0.0295
     69    H        5.5270   17.6970    9.7460 H       2  LIG2        0.0232
     70    H        5.6090   16.0230   10.2400 H       2  LIG2        0.0232
     71    H        4.3800   17.0720   10.9070 H       2  LIG2        0.0232
     72    H        5.3710   16.9870    7.3300 H       2  LIG2        0.0232
     73    H        4.1590   15.8210    6.8550 H       2  LIG2        0.0232
     74    H        5.5010   15.3270    7.8590 H       2  LIG2        0.0232
@<TRIPOS>BOND
     1    73    28    1
     2    72    28    1
     3    37     9    1
     4    28    74    1
     5    28    26    1
     6    36     9    1
     7    67    25    1
     8    40    11    1
     9    42    12    1
    10    41    11    1
    11     9    11    1
    12     9     3    1
    13    59    21    1
    14    11     6    1
    15    66    25    1
    16    25    26    1
    17    25    24    1
    18    50    17    1
    19    26    68    1
    20    26    27    1
    21    12    43    1
    22    12    17    1
    23    12     4    1
    24    45    14    1
    25    21    58    1
    26    21    24    1
    27    21    13    1
    28    17    15    2
    29    31     4    1
    30     3     4    1
    31     3    30    1
    32     3     2    1
    33    24    64    1
    34    24    65    1
    35    69    27    1
    36     4     5    1
    37     6    13    1
    38     6     2    1
    39     6    33    1
    40    14    46    1
    41    14     2    1
    42    14    47    1
    43    27    70    1
    44    27    71    1
    45    44    13    1
    46    55    19    1
    47    13    23    1
    48     2     7    1
    49    51    18    1
    50    15    19    1
    51    15     8    1
    52    54    19    1
    53    19    22    1
    54     5     8    1
    55     5    32    1
    56     5    10    1
    57    18     8    1
    58    18    52    1
    59    18    53    1
    60     8    16    1
    61    23    61    1
    62    23    62    1
    63    23    63    1
    64     7    34    1
    65     7    10    1
    66     7    35    1
    67    38    10    1
    68    10    39    1
    69    22    60    1
    70    22     1    1
    71    22    20    1
    72     1    29    1
    73    16    48    1
    74    16    20    1
    75    16    49    1
    76    57    20    1
    77    20    56    1
