# Top-energy pose of compounds ranked according to the score (given in kcal/mol).
@<TRIPOS>MOLECULE
ligand_5d84505105_1_run_21.pdb
 74 77 0 0 0
SMALL
GASTEIGER

@<TRIPOS>ATOM
      1    O        4.3800   -8.1510   -4.2500 O.3     2  LIG2       -0.3915
      2    C       -3.1450   -4.6890   -1.4520 C.3     2  LIG2       -0.0259
      3    C       -1.9610   -5.0260   -0.5240 C.3     2  LIG2       -0.0320
      4    C       -1.0240   -6.0930   -1.0990 C.3     2  LIG2       -0.0307
      5    C       -0.4730   -5.6130   -2.4730 C.3     2  LIG2       -0.0285
      6    C       -3.8810   -3.6650   -0.5540 C.3     2  LIG2       -0.0328
      7    C       -2.5640   -4.1070   -2.7480 C.3     2  LIG2       -0.0468
      8    C        0.4720   -6.6990   -3.1290 C.3     2  LIG2       -0.0078
      9    C       -2.6210   -5.2800    0.8280 C.3     2  LIG2       -0.0492
     10    C       -1.5890   -5.0890   -3.4190 C.3     2  LIG2       -0.0486
     11    C       -3.8070   -4.2960    0.8560 C.3     2  LIG2       -0.0492
     12    C        0.1360   -6.3760   -0.1340 C.3     2  LIG2       -0.0311
     13    C       -5.3010   -3.2970   -0.9640 C.3     2  LIG2       -0.0405
     14    C       -4.0540   -5.9000   -1.7800 C.3     2  LIG2       -0.0590
     15    C        1.4370   -7.2830   -2.0880 C.2     2  LIG2       -0.0648
     16    C        1.2960   -6.0120   -4.2580 C.3     2  LIG2       -0.0413
     17    C        1.2740   -7.1130   -0.7630 C.2     2  LIG2       -0.0839
     18    C       -0.3460   -7.8670   -3.7300 C.3     2  LIG2       -0.0556
     19    C        2.6170   -8.0710   -2.6060 C.3     2  LIG2       -0.0051
     20    C        2.4440   -6.8580   -4.8040 C.3     2  LIG2       -0.0258
     21    C       -6.0970   -2.6290    0.1770 C.3     2  LIG2       -0.0502
     22    C        3.3790   -7.3090   -3.6880 C.3     2  LIG2        0.0590
     23    C       -5.2700   -2.3570   -2.1760 C.3     2  LIG2       -0.0621
     24    C       -7.5350   -2.2120   -0.1610 C.3     2  LIG2       -0.0526
     25    C       -8.3140   -1.6760    1.0440 C.3     2  LIG2       -0.0507
     26    C       -9.8050   -1.4240    0.7470 C.3     2  LIG2       -0.0467
     27    C      -10.0180   -0.3720   -0.3420 C.3     2  LIG2       -0.0627
     28    C      -10.5220   -0.9890    2.0280 C.3     2  LIG2       -0.0627
     29    H        4.7190   -7.7510   -5.0660 H       2  LIG2        0.2098
     30    H       -1.2430   -4.2410   -0.4130 H       2  LIG2        0.0309
     31    H       -1.5750   -7.0000   -1.2330 H       2  LIG2        0.0309
     32    H        0.1450   -4.7590   -2.2910 H       2  LIG2        0.0312
     33    H       -3.4090   -2.7080   -0.6260 H       2  LIG2        0.0309
     34    H       -2.0420   -3.2010   -2.5180 H       2  LIG2        0.0271
     35    H       -3.3720   -3.9200   -3.4240 H       2  LIG2        0.0271
     36    H       -1.9400   -5.0770    1.6280 H       2  LIG2        0.0268
     37    H       -2.9280   -6.2970    0.9510 H       2  LIG2        0.0268
     38    H       -2.1490   -5.9280   -3.7770 H       2  LIG2        0.0268
     39    H       -1.1020   -4.5540   -4.2080 H       2  LIG2        0.0268
     40    H       -4.7150   -4.8170    1.0780 H       2  LIG2        0.0268
     41    H       -3.6740   -3.5480    1.6100 H       2  LIG2        0.0268
     42    H       -0.2370   -6.9610    0.6810 H       2  LIG2        0.0310
     43    H        0.5160   -5.4280    0.1850 H       2  LIG2        0.0310
     44    H       -5.7970   -4.2110   -1.2130 H       2  LIG2        0.0301
     45    H       -4.4550   -6.3010   -0.8720 H       2  LIG2        0.0235
     46    H       -3.4790   -6.6530   -2.2780 H       2  LIG2        0.0235
     47    H       -4.8540   -5.5840   -2.4150 H       2  LIG2        0.0235
     48    H        1.7050   -5.1030   -3.8680 H       2  LIG2        0.0274
     49    H        0.6210   -5.8490   -5.0730 H       2  LIG2        0.0274
     50    H        1.9850   -7.5220   -0.1370 H       2  LIG2        0.0572
     51    H       -0.9130   -8.3410   -2.9570 H       2  LIG2        0.0238
     52    H        0.3200   -8.5790   -4.1710 H       2  LIG2        0.0238
     53    H       -1.0100   -7.4890   -4.4790 H       2  LIG2        0.0238
     54    H        2.2640   -8.9940   -3.0170 H       2  LIG2        0.0335
     55    H        3.2860   -8.2450   -1.7890 H       2  LIG2        0.0335
     56    H        3.0000   -6.2770   -5.5100 H       2  LIG2        0.0290
     57    H        2.0310   -7.7270   -5.2710 H       2  LIG2        0.0290
     58    H       -5.5640   -1.7520    0.4790 H       2  LIG2        0.0268
     59    H       -6.1840   -3.3730    0.9410 H       2  LIG2        0.0268
     60    H        3.8210   -6.4470   -3.2340 H       2  LIG2        0.0596
     61    H       -4.7710   -1.4490   -1.9100 H       2  LIG2        0.0233
     62    H       -6.2710   -2.1380   -2.4820 H       2  LIG2        0.0233
     63    H       -4.7470   -2.8300   -2.9800 H       2  LIG2        0.0233
     64    H       -8.0530   -3.0640   -0.5470 H       2  LIG2        0.0265
     65    H       -7.4730   -1.4170   -0.8750 H       2  LIG2        0.0265
     66    H       -7.8690   -0.7520    1.3520 H       2  LIG2        0.0268
     67    H       -8.2660   -2.4220    1.8090 H       2  LIG2        0.0268
     68    H      -10.2150   -2.3440    0.3850 H       2  LIG2        0.0295
     69    H       -9.6190    0.5650   -0.0150 H       2  LIG2        0.0232
     70    H      -11.0650   -0.2660   -0.5360 H       2  LIG2        0.0232
     71    H       -9.5190   -0.6800   -1.2370 H       2  LIG2        0.0232
     72    H      -10.1020   -0.0690    2.3770 H       2  LIG2        0.0232
     73    H      -10.4010   -1.7440    2.7780 H       2  LIG2        0.0232
     74    H      -11.5630   -0.8520    1.8250 H       2  LIG2        0.0232
@<TRIPOS>BOND
     1    56    20    1
     2    57    20    1
     3    49    16    1
     4    29     1    1
     5    20    16    1
     6    20    22    1
     7    53    18    1
     8    16    48    1
     9    16     8    1
    10     1    22    1
    11    39    10    1
    12    52    18    1
    13    38    10    1
    14    18     8    1
    15    18    51    1
    16    22    60    1
    17    22    19    1
    18    35     7    1
    19    10     7    1
    20    10     5    1
    21     8     5    1
    22     8    15    1
    23    54    19    1
    24    63    23    1
    25     7    34    1
    26     7     2    1
    27    19    15    1
    28    19    55    1
    29    62    23    1
    30     5    32    1
    31     5     4    1
    32    47    14    1
    33    46    14    1
    34    23    61    1
    35    23    13    1
    36    15    17    2
    37    14     2    1
    38    14    45    1
    39     2     6    1
    40     2     3    1
    41    71    27    1
    42    31     4    1
    43    44    13    1
    44     4     3    1
    45     4    12    1
    46    13     6    1
    47    13    21    1
    48    65    24    1
    49    17    50    1
    50    17    12    1
    51    33     6    1
    52     6    11    1
    53    64    24    1
    54    70    27    1
    55     3    30    1
    56     3     9    1
    57    27    69    1
    58    27    26    1
    59    24    21    1
    60    24    25    1
    61    12    43    1
    62    12    42    1
    63    21    58    1
    64    21    59    1
    65    68    26    1
    66    26    25    1
    67    26    28    1
    68     9    11    1
    69     9    37    1
    70     9    36    1
    71    11    40    1
    72    11    41    1
    73    25    66    1
    74    25    67    1
    75    74    28    1
    76    28    72    1
    77    28    73    1
