@<TRIPOS>MOLECULE
ligand_5d84505105_1_run_21.pdb
 74 77 0 0 0
SMALL
GASTEIGER

@<TRIPOS>ATOM
      1    O        4.3800   -8.1510   -4.2500 O.3     2  LIG2       -0.3915
      2    C       -3.1450   -4.6890   -1.4520 C.3     2  LIG2       -0.0259
      3    C       -1.9610   -5.0260   -0.5240 C.3     2  LIG2       -0.0320
      4    C       -1.0240   -6.0930   -1.0990 C.3     2  LIG2       -0.0307
      5    C       -0.4730   -5.6130   -2.4730 C.3     2  LIG2       -0.0285
      6    C       -3.8810   -3.6650   -0.5540 C.3     2  LIG2       -0.0328
      7    C       -2.5640   -4.1070   -2.7480 C.3     2  LIG2       -0.0468
      8    C        0.4720   -6.6990   -3.1290 C.3     2  LIG2       -0.0078
      9    C       -2.6210   -5.2800    0.8280 C.3     2  LIG2       -0.0492
     10    C       -1.5890   -5.0890   -3.4190 C.3     2  LIG2       -0.0486
     11    C       -3.8070   -4.2960    0.8560 C.3     2  LIG2       -0.0492
     12    C        0.1360   -6.3760   -0.1340 C.3     2  LIG2       -0.0311
     13    C       -5.3010   -3.2970   -0.9640 C.3     2  LIG2       -0.0405
     14    C       -4.0540   -5.9000   -1.7800 C.3     2  LIG2       -0.0590
     15    C        1.4370   -7.2830   -2.0880 C.2     2  LIG2       -0.0648
     16    C        1.2960   -6.0120   -4.2580 C.3     2  LIG2       -0.0413
     17    C        1.2740   -7.1130   -0.7630 C.2     2  LIG2       -0.0839
     18    C       -0.3460   -7.8670   -3.7300 C.3     2  LIG2       -0.0556
     19    C        2.6170   -8.0710   -2.6060 C.3     2  LIG2       -0.0051
     20    C        2.4440   -6.8580   -4.8040 C.3     2  LIG2       -0.0258
     21    C       -6.0970   -2.6290    0.1770 C.3     2  LIG2       -0.0502
     22    C        3.3790   -7.3090   -3.6880 C.3     2  LIG2        0.0590
     23    C       -5.2700   -2.3570   -2.1760 C.3     2  LIG2       -0.0621
     24    C       -7.5350   -2.2120   -0.1610 C.3     2  LIG2       -0.0526
     25    C       -8.3140   -1.6760    1.0440 C.3     2  LIG2       -0.0507
     26    C       -9.8050   -1.4240    0.7470 C.3     2  LIG2       -0.0467
     27    C      -10.0180   -0.3720   -0.3420 C.3     2  LIG2       -0.0627
     28    C      -10.5220   -0.9890    2.0280 C.3     2  LIG2       -0.0627
     29    H        4.7190   -7.7510   -5.0660 H       2  LIG2        0.2098
     30    H       -1.2430   -4.2410   -0.4130 H       2  LIG2        0.0309
     31    H       -1.5750   -7.0000   -1.2330 H       2  LIG2        0.0309
     32    H        0.1450   -4.7590   -2.2910 H       2  LIG2        0.0312
     33    H       -3.4090   -2.7080   -0.6260 H       2  LIG2        0.0309
     34    H       -2.0420   -3.2010   -2.5180 H       2  LIG2        0.0271
     35    H       -3.3720   -3.9200   -3.4240 H       2  LIG2        0.0271
     36    H       -1.9400   -5.0770    1.6280 H       2  LIG2        0.0268
     37    H       -2.9280   -6.2970    0.9510 H       2  LIG2        0.0268
     38    H       -2.1490   -5.9280   -3.7770 H       2  LIG2        0.0268
     39    H       -1.1020   -4.5540   -4.2080 H       2  LIG2        0.0268
     40    H       -4.7150   -4.8170    1.0780 H       2  LIG2        0.0268
     41    H       -3.6740   -3.5480    1.6100 H       2  LIG2        0.0268
     42    H       -0.2370   -6.9610    0.6810 H       2  LIG2        0.0310
     43    H        0.5160   -5.4280    0.1850 H       2  LIG2        0.0310
     44    H       -5.7970   -4.2110   -1.2130 H       2  LIG2        0.0301
     45    H       -4.4550   -6.3010   -0.8720 H       2  LIG2        0.0235
     46    H       -3.4790   -6.6530   -2.2780 H       2  LIG2        0.0235
     47    H       -4.8540   -5.5840   -2.4150 H       2  LIG2        0.0235
     48    H        1.7050   -5.1030   -3.8680 H       2  LIG2        0.0274
     49    H        0.6210   -5.8490   -5.0730 H       2  LIG2        0.0274
     50    H        1.9850   -7.5220   -0.1370 H       2  LIG2        0.0572
     51    H       -0.9130   -8.3410   -2.9570 H       2  LIG2        0.0238
     52    H        0.3200   -8.5790   -4.1710 H       2  LIG2        0.0238
     53    H       -1.0100   -7.4890   -4.4790 H       2  LIG2        0.0238
     54    H        2.2640   -8.9940   -3.0170 H       2  LIG2        0.0335
     55    H        3.2860   -8.2450   -1.7890 H       2  LIG2        0.0335
     56    H        3.0000   -6.2770   -5.5100 H       2  LIG2        0.0290
     57    H        2.0310   -7.7270   -5.2710 H       2  LIG2        0.0290
     58    H       -5.5640   -1.7520    0.4790 H       2  LIG2        0.0268
     59    H       -6.1840   -3.3730    0.9410 H       2  LIG2        0.0268
     60    H        3.8210   -6.4470   -3.2340 H       2  LIG2        0.0596
     61    H       -4.7710   -1.4490   -1.9100 H       2  LIG2        0.0233
     62    H       -6.2710   -2.1380   -2.4820 H       2  LIG2        0.0233
     63    H       -4.7470   -2.8300   -2.9800 H       2  LIG2        0.0233
     64    H       -8.0530   -3.0640   -0.5470 H       2  LIG2        0.0265
     65    H       -7.4730   -1.4170   -0.8750 H       2  LIG2        0.0265
     66    H       -7.8690   -0.7520    1.3520 H       2  LIG2        0.0268
     67    H       -8.2660   -2.4220    1.8090 H       2  LIG2        0.0268
     68    H      -10.2150   -2.3440    0.3850 H       2  LIG2        0.0295
     69    H       -9.6190    0.5650   -0.0150 H       2  LIG2        0.0232
     70    H      -11.0650   -0.2660   -0.5360 H       2  LIG2        0.0232
     71    H       -9.5190   -0.6800   -1.2370 H       2  LIG2        0.0232
     72    H      -10.1020   -0.0690    2.3770 H       2  LIG2        0.0232
     73    H      -10.4010   -1.7440    2.7780 H       2  LIG2        0.0232
     74    H      -11.5630   -0.8520    1.8250 H       2  LIG2        0.0232
@<TRIPOS>BOND
     1    56    20    1
     2    57    20    1
     3    49    16    1
     4    29     1    1
     5    20    16    1
     6    20    22    1
     7    53    18    1
     8    16    48    1
     9    16     8    1
    10     1    22    1
    11    39    10    1
    12    52    18    1
    13    38    10    1
    14    18     8    1
    15    18    51    1
    16    22    60    1
    17    22    19    1
    18    35     7    1
    19    10     7    1
    20    10     5    1
    21     8     5    1
    22     8    15    1
    23    54    19    1
    24    63    23    1
    25     7    34    1
    26     7     2    1
    27    19    15    1
    28    19    55    1
    29    62    23    1
    30     5    32    1
    31     5     4    1
    32    47    14    1
    33    46    14    1
    34    23    61    1
    35    23    13    1
    36    15    17    2
    37    14     2    1
    38    14    45    1
    39     2     6    1
    40     2     3    1
    41    71    27    1
    42    31     4    1
    43    44    13    1
    44     4     3    1
    45     4    12    1
    46    13     6    1
    47    13    21    1
    48    65    24    1
    49    17    50    1
    50    17    12    1
    51    33     6    1
    52     6    11    1
    53    64    24    1
    54    70    27    1
    55     3    30    1
    56     3     9    1
    57    27    69    1
    58    27    26    1
    59    24    21    1
    60    24    25    1
    61    12    43    1
    62    12    42    1
    63    21    58    1
    64    21    59    1
    65    68    26    1
    66    26    25    1
    67    26    28    1
    68     9    11    1
    69     9    37    1
    70     9    36    1
    71    11    40    1
    72    11    41    1
    73    25    66    1
    74    25    67    1
    75    74    28    1
    76    28    72    1
    77    28    73    1
@<TRIPOS>MOLECULE
ligand_5d84505105_1_run_20.pdb
 74 77 0 0 0
SMALL
GASTEIGER

@<TRIPOS>ATOM
      1    O        5.1680   -6.9040   -4.0000 O.3     2  LIG2       -0.3915
      2    C       -1.5270   -7.4620    1.5950 C.3     2  LIG2       -0.0259
      3    C       -0.7590   -6.1570    1.3070 C.3     2  LIG2       -0.0320
      4    C        0.6560   -6.3910    0.7690 C.3     2  LIG2       -0.0307
      5    C        0.5820   -7.2360   -0.5360 C.3     2  LIG2       -0.0285
      6    C       -2.8360   -6.8610    2.1610 C.3     2  LIG2       -0.0328
      7    C       -1.6850   -8.2080    0.2630 C.3     2  LIG2       -0.0468
      8    C        2.0230   -7.5400   -1.1120 C.3     2  LIG2       -0.0078
      9    C       -0.9330   -5.3440    2.5870 C.3     2  LIG2       -0.0492
     10    C       -0.3200   -8.4930   -0.3880 C.3     2  LIG2       -0.0486
     11    C       -2.3470   -5.7140    3.0760 C.3     2  LIG2       -0.0492
     12    C        1.3620   -5.0560    0.4950 C.3     2  LIG2       -0.0311
     13    C       -3.7770   -7.8250    2.8710 C.3     2  LIG2       -0.0405
     14    C       -0.8390   -8.3820    2.6350 C.3     2  LIG2       -0.0590
     15    C        2.9020   -6.2820   -1.0720 C.2     2  LIG2       -0.0648
     16    C        1.8690   -8.0080   -2.5890 C.3     2  LIG2       -0.0413
     17    C        2.5800   -5.1860   -0.3620 C.2     2  LIG2       -0.0839
     18    C        2.7340   -8.6450   -0.2950 C.3     2  LIG2       -0.0556
     19    C        4.1770   -6.3050   -1.8850 C.3     2  LIG2       -0.0051
     20    C        3.1830   -8.0800   -3.3670 C.3     2  LIG2       -0.0258
     21    C       -4.8280   -7.1020    3.7390 C.3     2  LIG2       -0.0502
     22    C        3.9240   -6.7490   -3.3240 C.3     2  LIG2        0.0590
     23    C       -4.4920   -8.7120    1.8450 C.3     2  LIG2       -0.0621
     24    C       -5.7440   -6.1140    3.0030 C.3     2  LIG2       -0.0526
     25    C       -6.8600   -5.5440    3.8840 C.3     2  LIG2       -0.0507
     26    C       -7.8050   -4.5870    3.1310 C.3     2  LIG2       -0.0467
     27    C       -7.1210   -3.2800    2.7290 C.3     2  LIG2       -0.0627
     28    C       -9.0290   -4.2800    3.9990 C.3     2  LIG2       -0.0627
     29    H        5.0100   -7.2380   -4.8970 H       2  LIG2        0.2098
     30    H       -1.1390   -5.5870    0.4850 H       2  LIG2        0.0309
     31    H        1.2210   -6.9220    1.5060 H       2  LIG2        0.0309
     32    H        0.0900   -6.6410   -1.2760 H       2  LIG2        0.0312
     33    H       -3.4660   -6.5370    1.3590 H       2  LIG2        0.0309
     34    H       -2.2690   -7.6090   -0.4030 H       2  LIG2        0.0271
     35    H       -2.1670   -9.1430    0.4560 H       2  LIG2        0.0271
     36    H       -0.8630   -4.2960    2.3840 H       2  LIG2        0.0268
     37    H       -0.1780   -5.5560    3.3150 H       2  LIG2        0.0268
     38    H        0.1970   -9.2100    0.2140 H       2  LIG2        0.0268
     39    H       -0.5160   -8.8530   -1.3770 H       2  LIG2        0.0268
     40    H       -2.3130   -6.0420    4.0940 H       2  LIG2        0.0268
     41    H       -3.0060   -4.8730    3.0320 H       2  LIG2        0.0268
     42    H        1.6520   -4.6280    1.4320 H       2  LIG2        0.0310
     43    H        0.6690   -4.4390   -0.0380 H       2  LIG2        0.0310
     44    H       -3.1740   -8.4210    3.5240 H       2  LIG2        0.0301
     45    H       -0.7320   -7.8560    3.5610 H       2  LIG2        0.0235
     46    H        0.1270   -8.6680    2.2740 H       2  LIG2        0.0235
     47    H       -1.4360   -9.2560    2.7880 H       2  LIG2        0.0235
     48    H        1.2190   -7.3230   -3.0920 H       2  LIG2        0.0274
     49    H        1.4800   -9.0040   -2.5550 H       2  LIG2        0.0274
     50    H        3.2190   -4.3780   -0.4130 H       2  LIG2        0.0572
     51    H        2.8410   -8.3260    0.7210 H       2  LIG2        0.0238
     52    H        3.7010   -8.8320   -0.7140 H       2  LIG2        0.0238
     53    H        2.1520   -9.5430   -0.3280 H       2  LIG2        0.0238
     54    H        4.8660   -6.9840   -1.4290 H       2  LIG2        0.0335
     55    H        4.5730   -5.3120   -1.9090 H       2  LIG2        0.0335
     56    H        2.9710   -8.3280   -4.3860 H       2  LIG2        0.0290
     57    H        3.8020   -8.8270   -2.9160 H       2  LIG2        0.0290
     58    H       -4.3080   -6.5610    4.5010 H       2  LIG2        0.0268
     59    H       -5.4730   -7.8710    4.1100 H       2  LIG2        0.0268
     60    H        3.3260   -6.0010   -3.8000 H       2  LIG2        0.0596
     61    H       -5.0900   -8.1020    1.2010 H       2  LIG2        0.0233
     62    H       -5.1190   -9.4130    2.3550 H       2  LIG2        0.0233
     63    H       -3.7660   -9.2400    1.2630 H       2  LIG2        0.0233
     64    H       -6.1920   -6.6200    2.1730 H       2  LIG2        0.0265
     65    H       -5.1350   -5.2900    2.6940 H       2  LIG2        0.0265
     66    H       -6.4120   -5.0100    4.6950 H       2  LIG2        0.0268
     67    H       -7.4500   -6.3710    4.2200 H       2  LIG2        0.0268
     68    H       -8.1030   -5.0800    2.2300 H       2  LIG2        0.0295
     69    H       -6.8070   -2.7570    3.6070 H       2  LIG2        0.0232
     70    H       -7.8070   -2.6730    2.1770 H       2  LIG2        0.0232
     71    H       -6.2680   -3.4980    2.1200 H       2  LIG2        0.0232
     72    H       -8.7160   -3.7870    4.8950 H       2  LIG2        0.0232
     73    H       -9.5270   -5.1930    4.2500 H       2  LIG2        0.0232
     74    H       -9.6990   -3.6450    3.4580 H       2  LIG2        0.0232
@<TRIPOS>BOND
     1    29     1    1
     2    56    20    1
     3     1    22    1
     4    60    22    1
     5    20    22    1
     6    20    57    1
     7    20    16    1
     8    22    19    1
     9    48    16    1
    10    16    49    1
    11    16     8    1
    12    55    19    1
    13    19    54    1
    14    19    15    1
    15    39    10    1
    16    32     5    1
    17     8    15    1
    18     8     5    1
    19     8    18    1
    20    15    17    2
    21    52    18    1
    22     5    10    1
    23     5     4    1
    24    50    17    1
    25    34     7    1
    26    10    38    1
    27    10     7    1
    28    17    12    1
    29    53    18    1
    30    18    51    1
    31    43    12    1
    32     7    35    1
    33     7     2    1
    34    30     3    1
    35    12     4    1
    36    12    42    1
    37     4     3    1
    38     4    31    1
    39    61    23    1
    40    63    23    1
    41     3     2    1
    42     3     9    1
    43    33     6    1
    44     2     6    1
    45     2    14    1
    46    23    62    1
    47    23    13    1
    48    71    27    1
    49     6    13    1
    50     6    11    1
    51    64    24    1
    52    70    27    1
    53    68    26    1
    54    46    14    1
    55    36     9    1
    56     9    11    1
    57     9    37    1
    58    14    47    1
    59    14    45    1
    60    65    24    1
    61    27    26    1
    62    27    69    1
    63    13    44    1
    64    13    21    1
    65    24    21    1
    66    24    25    1
    67    41    11    1
    68    11    40    1
    69    26    25    1
    70    26    28    1
    71    74    28    1
    72    21    59    1
    73    21    58    1
    74    25    67    1
    75    25    66    1
    76    28    73    1
    77    28    72    1
@<TRIPOS>MOLECULE
ligand_5d84505105_1_run_1.pdb
 74 77 0 0 0
SMALL
GASTEIGER

@<TRIPOS>ATOM
      1    O        5.5980   -6.8230   -4.0000 O.3     2  LIG2       -0.3915
      2    C       -1.8900   -7.0520    0.5070 C.3     2  LIG2       -0.0259
      3    C       -1.5230   -8.0670   -0.5940 C.3     2  LIG2       -0.0320
      4    C       -0.4890   -7.5330   -1.5910 C.3     2  LIG2       -0.0307
      5    C        0.8030   -7.1200   -0.8280 C.3     2  LIG2       -0.0285
      6    C       -2.9600   -7.8790    1.2610 C.3     2  LIG2       -0.0328
      7    C       -0.6160   -6.7640    1.3120 C.3     2  LIG2       -0.0468
      8    C        1.8890   -6.5250   -1.8100 C.3     2  LIG2       -0.0078
      9    C       -2.8760   -8.5380   -1.1190 C.3     2  LIG2       -0.0492
     10    C        0.5110   -6.2290    0.4110 C.3     2  LIG2       -0.0486
     11    C       -3.7830   -8.5330    0.1260 C.3     2  LIG2       -0.0492
     12    C       -0.1600   -8.5920   -2.6530 C.3     2  LIG2       -0.0311
     13    C       -3.8240   -7.1240    2.2610 C.3     2  LIG2       -0.0405
     14    C       -2.4850   -5.7270   -0.0310 C.3     2  LIG2       -0.0590
     15    C        2.0000   -7.3760   -3.0820 C.2     2  LIG2       -0.0648
     16    C        3.2630   -6.5240   -1.0760 C.3     2  LIG2       -0.0413
     17    C        1.0840   -8.2980   -3.4280 C.2     2  LIG2       -0.0839
     18    C        1.5340   -5.0790   -2.2330 C.3     2  LIG2       -0.0556
     19    C        3.2100   -7.1500   -3.9610 C.3     2  LIG2       -0.0051
     20    C        4.4600   -6.2320   -1.9800 C.3     2  LIG2       -0.0258
     21    C       -5.0970   -7.9020    2.6560 C.3     2  LIG2       -0.0502
     22    C        4.5090   -7.1940   -3.1610 C.3     2  LIG2        0.0590
     23    C       -3.0130   -6.8090    3.5230 C.3     2  LIG2       -0.0621
     24    C       -6.0660   -7.1730    3.5970 C.3     2  LIG2       -0.0526
     25    C       -6.5640   -5.8340    3.0430 C.3     2  LIG2       -0.0507
     26    C       -7.7160   -5.2230    3.8650 C.3     2  LIG2       -0.0467
     27    C       -8.3940   -4.0550    3.1480 C.3     2  LIG2       -0.0627
     28    C       -7.1900   -4.7560    5.2250 C.3     2  LIG2       -0.0627
     29    H        5.5000   -7.2500   -4.8650 H       2  LIG2        0.2098
     30    H       -0.9730   -8.9190   -0.2510 H       2  LIG2        0.0309
     31    H       -0.8990   -6.6790   -2.0870 H       2  LIG2        0.0309
     32    H        1.2340   -8.0110   -0.4200 H       2  LIG2        0.0312
     33    H       -2.4860   -8.5830    1.9130 H       2  LIG2        0.0309
     34    H       -0.2870   -7.6690    1.7790 H       2  LIG2        0.0271
     35    H       -0.8430   -6.0180    2.0450 H       2  LIG2        0.0271
     36    H       -2.8020   -9.5220   -1.5320 H       2  LIG2        0.0268
     37    H       -3.2510   -7.9150   -1.9040 H       2  LIG2        0.0268
     38    H        0.2330   -5.2540    0.0670 H       2  LIG2        0.0268
     39    H        1.4030   -6.2160    1.0030 H       2  LIG2        0.0268
     40    H       -4.6690   -7.9640   -0.0630 H       2  LIG2        0.0268
     41    H       -4.0890   -9.5240    0.3880 H       2  LIG2        0.0268
     42    H       -0.9800   -8.6490   -3.3380 H       2  LIG2        0.0310
     43    H        0.0040   -9.5140   -2.1350 H       2  LIG2        0.0310
     44    H       -4.1340   -6.2200    1.7800 H       2  LIG2        0.0301
     45    H       -3.3720   -5.9360   -0.5910 H       2  LIG2        0.0235
     46    H       -1.7690   -5.2460   -0.6640 H       2  LIG2        0.0235
     47    H       -2.7240   -5.0840    0.7910 H       2  LIG2        0.0235
     48    H        3.4060   -7.4870   -0.6320 H       2  LIG2        0.0274
     49    H        3.2240   -5.7340   -0.3550 H       2  LIG2        0.0274
     50    H        1.2520   -8.8410   -4.2890 H       2  LIG2        0.0572
     51    H        0.5910   -5.0760   -2.7370 H       2  LIG2        0.0238
     52    H        2.2910   -4.7030   -2.8890 H       2  LIG2        0.0238
     53    H        1.4760   -4.4570   -1.3640 H       2  LIG2        0.0238
     54    H        3.1240   -6.1920   -4.4290 H       2  LIG2        0.0335
     55    H        3.2420   -7.9330   -4.6900 H       2  LIG2        0.0335
     56    H        5.3600   -6.3340   -1.4100 H       2  LIG2        0.0290
     57    H        4.3630   -5.2360   -2.3580 H       2  LIG2        0.0290
     58    H       -4.7920   -8.8070    3.1370 H       2  LIG2        0.0268
     59    H       -5.6380   -8.0510    1.7440 H       2  LIG2        0.0268
     60    H        4.6370   -8.1910   -2.7940 H       2  LIG2        0.0596
     61    H       -2.7120   -7.7230    3.9910 H       2  LIG2        0.0233
     62    H       -3.6160   -6.2420    4.2020 H       2  LIG2        0.0233
     63    H       -2.1460   -6.2410    3.2570 H       2  LIG2        0.0233
     64    H       -5.5650   -6.9900    4.5240 H       2  LIG2        0.0265
     65    H       -6.9230   -7.8030    3.7170 H       2  LIG2        0.0265
     66    H       -6.9070   -5.9880    2.0410 H       2  LIG2        0.0268
     67    H       -5.7440   -5.1490    3.0900 H       2  LIG2        0.0268
     68    H       -8.4530   -5.9880    3.9940 H       2  LIG2        0.0295
     69    H       -7.6850   -3.2670    3.0010 H       2  LIG2        0.0232
     70    H       -9.2080   -3.6950    3.7430 H       2  LIG2        0.0232
     71    H       -8.7640   -4.3850    2.2000 H       2  LIG2        0.0232
     72    H       -6.4550   -3.9920    5.0800 H       2  LIG2        0.0232
     73    H       -6.7480   -5.5830    5.7400 H       2  LIG2        0.0232
     74    H       -8.0000   -4.3660    5.8060 H       2  LIG2        0.0232
@<TRIPOS>BOND
     1    29     1    1
     2    55    19    1
     3    54    19    1
     4    50    17    1
     5     1    22    1
     6    19    22    1
     7    19    15    1
     8    17    15    2
     9    17    12    1
    10    42    12    1
    11    22    60    1
    12    22    20    1
    13    15     8    1
    14    52    18    1
    15    51    18    1
    16    12    43    1
    17    12     4    1
    18    57    20    1
    19    18     8    1
    20    18    53    1
    21    31     4    1
    22    20    56    1
    23    20    16    1
    24    37     9    1
    25     8    16    1
    26     8     5    1
    27     4     5    1
    28     4     3    1
    29    36     9    1
    30     9     3    1
    31     9    11    1
    32    16    48    1
    33    16    49    1
    34     5    32    1
    35     5    10    1
    36    46    14    1
    37     3    30    1
    38     3     2    1
    39    45    14    1
    40    40    11    1
    41    14     2    1
    42    14    47    1
    43    38    10    1
    44    11    41    1
    45    11     6    1
    46    10    39    1
    47    10     7    1
    48     2     6    1
    49     2     7    1
    50     6    33    1
    51     6    13    1
    52     7    34    1
    53     7    35    1
    54    59    21    1
    55    44    13    1
    56    66    25    1
    57    71    27    1
    58    13    21    1
    59    13    23    1
    60    21    58    1
    61    21    24    1
    62    69    27    1
    63    25    67    1
    64    25    24    1
    65    25    26    1
    66    27    70    1
    67    27    26    1
    68    63    23    1
    69    23    61    1
    70    23    62    1
    71    24    65    1
    72    24    64    1
    73    26    68    1
    74    26    28    1
    75    72    28    1
    76    28    73    1
    77    28    74    1
