# Top-energy pose of compounds ranked according to the score (given in kcal/mol).
@<TRIPOS>MOLECULE
ligand_94afd2169f_1_run_24.pdb
 74 77 0 0 0
SMALL
GASTEIGER

@<TRIPOS>ATOM
      1    O      -16.3220    2.6510   -7.5000 O.3     2  LIG2       -0.3915
      2    C      -24.6070    5.4170   -7.1010 C.3     2  LIG2       -0.0259
      3    C      -24.1230    4.0760   -6.5140 C.3     2  LIG2       -0.0320
      4    C      -22.8360    3.5580   -7.1640 C.3     2  LIG2       -0.0307
      5    C      -21.7090    4.6200   -7.0020 C.3     2  LIG2       -0.0285
      6    C      -25.9090    5.5910   -6.2820 C.3     2  LIG2       -0.0328
      7    C      -23.5220    6.4630   -6.8140 C.3     2  LIG2       -0.0468
      8    C      -20.3670    4.1480   -7.6920 C.3     2  LIG2       -0.0078
      9    C      -25.3690    3.1950   -6.5470 C.3     2  LIG2       -0.0492
     10    C      -22.1660    6.0480   -7.4110 C.3     2  LIG2       -0.0486
     11    C      -26.5270    4.1730   -6.2700 C.3     2  LIG2       -0.0492
     12    C      -22.4040    2.2280   -6.5300 C.3     2  LIG2       -0.0311
     13    C      -26.8810    6.6570   -6.7680 C.3     2  LIG2       -0.0405
     14    C      -24.9040    5.3690   -8.6200 C.3     2  LIG2       -0.0590
     15    C      -20.0740    2.6770   -7.3670 C.2     2  LIG2       -0.0648
     16    C      -19.2040    5.0310   -7.1510 C.3     2  LIG2       -0.0413
     17    C      -20.9910    1.8480   -6.8380 C.2     2  LIG2       -0.0839
     18    C      -20.4450    4.2910   -9.2310 C.3     2  LIG2       -0.0556
     19    C      -18.6800    2.1710   -7.6590 C.3     2  LIG2       -0.0051
     20    C      -17.8080    4.5270   -7.5140 C.3     2  LIG2       -0.0258
     21    C      -28.3000    6.4790   -6.1890 C.3     2  LIG2       -0.0502
     22    C      -17.6080    3.0830   -7.0680 C.3     2  LIG2        0.0590
     23    C      -26.3580    8.0520   -6.4030 C.3     2  LIG2       -0.0621
     24    C      -29.3260    7.5530   -6.5780 C.3     2  LIG2       -0.0526
     25    C      -30.7590    7.2090   -6.1600 C.3     2  LIG2       -0.0507
     26    C      -31.8040    8.2230   -6.6650 C.3     2  LIG2       -0.0467
     27    C      -31.6180    9.6120   -6.0540 C.3     2  LIG2       -0.0627
     28    C      -33.2130    7.7100   -6.3560 C.3     2  LIG2       -0.0627
     29    H      -16.2500    2.7630   -8.4610 H       2  LIG2        0.2098
     30    H      -23.7700    4.1310   -5.5050 H       2  LIG2        0.0309
     31    H      -23.0200    3.3880   -8.2040 H       2  LIG2        0.0309
     32    H      -21.4900    4.6990   -5.9580 H       2  LIG2        0.0312
     33    H      -25.6810    5.9730   -5.3080 H       2  LIG2        0.0309
     34    H      -23.4160    6.5730   -5.7550 H       2  LIG2        0.0271
     35    H      -23.8180    7.3870   -7.2650 H       2  LIG2        0.0271
     36    H      -25.3210    2.4400   -5.7910 H       2  LIG2        0.0268
     37    H      -25.4820    2.6780   -7.4770 H       2  LIG2        0.0268
     38    H      -22.2420    6.0850   -8.4780 H       2  LIG2        0.0268
     39    H      -21.4350    6.7290   -7.0280 H       2  LIG2        0.0268
     40    H      -27.2740    4.0890   -7.0310 H       2  LIG2        0.0268
     41    H      -26.9980    3.9620   -5.3330 H       2  LIG2        0.0268
     42    H      -23.0480    1.4550   -6.8930 H       2  LIG2        0.0310
     43    H      -22.4710    2.3500   -5.4690 H       2  LIG2        0.0310
     44    H      -26.9500    6.5510   -7.8310 H       2  LIG2        0.0301
     45    H      -25.6610    4.6370   -8.8120 H       2  LIG2        0.0235
     46    H      -24.0120    5.1070   -9.1500 H       2  LIG2        0.0235
     47    H      -25.2450    6.3290   -8.9470 H       2  LIG2        0.0235
     48    H      -19.2800    5.0680   -6.0840 H       2  LIG2        0.0274
     49    H      -19.3110    5.9920   -7.6100 H       2  LIG2        0.0274
     50    H      -20.6990    0.8800   -6.6310 H       2  LIG2        0.0572
     51    H      -21.2430    3.6860   -9.6060 H       2  LIG2        0.0238
     52    H      -19.5210    3.9720   -9.6660 H       2  LIG2        0.0238
     53    H      -20.6240    5.3150   -9.4860 H       2  LIG2        0.0238
     54    H      -18.5440    2.1200   -8.7190 H       2  LIG2        0.0335
     55    H      -18.5770    1.2040   -7.2110 H       2  LIG2        0.0335
     56    H      -17.0780    5.1440   -7.0330 H       2  LIG2        0.0290
     57    H      -17.6990    4.5700   -8.5770 H       2  LIG2        0.0290
     58    H      -28.2200    6.4740   -5.1220 H       2  LIG2        0.0268
     59    H      -28.6690    5.5650   -6.6050 H       2  LIG2        0.0268
     60    H      -17.6850    3.0340   -6.0020 H       2  LIG2        0.0596
     61    H      -26.2950    8.1410   -5.3380 H       2  LIG2        0.0233
     62    H      -27.0260    8.7950   -6.7850 H       2  LIG2        0.0233
     63    H      -25.3870    8.1910   -6.8300 H       2  LIG2        0.0233
     64    H      -29.3030    7.6740   -7.6410 H       2  LIG2        0.0265
     65    H      -29.0540    8.4500   -6.0620 H       2  LIG2        0.0265
     66    H      -30.8020    7.1800   -5.0910 H       2  LIG2        0.0268
     67    H      -30.9980    6.2630   -6.6000 H       2  LIG2        0.0268
     68    H      -31.6670    8.3190   -7.7220 H       2  LIG2        0.0295
     69    H      -31.7480    9.5560   -4.9940 H       2  LIG2        0.0232
     70    H      -32.3420   10.2830   -6.4680 H       2  LIG2        0.0232
     71    H      -30.6340    9.9700   -6.2740 H       2  LIG2        0.0232
     72    H      -33.3360    7.6190   -5.2970 H       2  LIG2        0.0232
     73    H      -33.3530    6.7530   -6.8150 H       2  LIG2        0.0232
     74    H      -33.9360    8.3990   -6.7410 H       2  LIG2        0.0232
@<TRIPOS>BOND
     1    52    18    1
     2    51    18    1
     3    53    18    1
     4    18     8    1
     5    46    14    1
     6    47    14    1
     7    45    14    1
     8    54    19    1
     9    14     2    1
    10    57    20    1
    11    38    10    1
    12    29     1    1
    13    31     4    1
    14    44    13    1
    15    68    26    1
    16     8    15    1
    17     8    16    1
    18     8     5    1
    19    19    15    1
    20    19    55    1
    21    19    22    1
    22    64    24    1
    23    49    16    1
    24    20    16    1
    25    20    22    1
    26    20    56    1
    27     1    22    1
    28    37     9    1
    29    10    39    1
    30    10     5    1
    31    10     7    1
    32    15    17    2
    33    35     7    1
    34     4     5    1
    35     4    12    1
    36     4     3    1
    37    16    48    1
    38     2     7    1
    39     2     3    1
    40     2     6    1
    41    22    60    1
    42    40    11    1
    43     5    32    1
    44    42    12    1
    45    17    50    1
    46    17    12    1
    47    63    23    1
    48    73    28    1
    49     7    34    1
    50    62    23    1
    51    13    23    1
    52    13     6    1
    53    13    21    1
    54    74    28    1
    55    26    28    1
    56    26    25    1
    57    26    27    1
    58    59    21    1
    59    67    25    1
    60    24    21    1
    61    24    25    1
    62    24    65    1
    63     9     3    1
    64     9    11    1
    65     9    36    1
    66    12    43    1
    67     3    30    1
    68    70    27    1
    69    23    61    1
    70    28    72    1
    71     6    11    1
    72     6    33    1
    73    71    27    1
    74    11    41    1
    75    21    58    1
    76    25    66    1
    77    27    69    1
