@<TRIPOS>MOLECULE
ligand_94afd2169f_1_run_24.pdb
 74 77 0 0 0
SMALL
GASTEIGER

@<TRIPOS>ATOM
      1    O      -16.3220    2.6510   -7.5000 O.3     2  LIG2       -0.3915
      2    C      -24.6070    5.4170   -7.1010 C.3     2  LIG2       -0.0259
      3    C      -24.1230    4.0760   -6.5140 C.3     2  LIG2       -0.0320
      4    C      -22.8360    3.5580   -7.1640 C.3     2  LIG2       -0.0307
      5    C      -21.7090    4.6200   -7.0020 C.3     2  LIG2       -0.0285
      6    C      -25.9090    5.5910   -6.2820 C.3     2  LIG2       -0.0328
      7    C      -23.5220    6.4630   -6.8140 C.3     2  LIG2       -0.0468
      8    C      -20.3670    4.1480   -7.6920 C.3     2  LIG2       -0.0078
      9    C      -25.3690    3.1950   -6.5470 C.3     2  LIG2       -0.0492
     10    C      -22.1660    6.0480   -7.4110 C.3     2  LIG2       -0.0486
     11    C      -26.5270    4.1730   -6.2700 C.3     2  LIG2       -0.0492
     12    C      -22.4040    2.2280   -6.5300 C.3     2  LIG2       -0.0311
     13    C      -26.8810    6.6570   -6.7680 C.3     2  LIG2       -0.0405
     14    C      -24.9040    5.3690   -8.6200 C.3     2  LIG2       -0.0590
     15    C      -20.0740    2.6770   -7.3670 C.2     2  LIG2       -0.0648
     16    C      -19.2040    5.0310   -7.1510 C.3     2  LIG2       -0.0413
     17    C      -20.9910    1.8480   -6.8380 C.2     2  LIG2       -0.0839
     18    C      -20.4450    4.2910   -9.2310 C.3     2  LIG2       -0.0556
     19    C      -18.6800    2.1710   -7.6590 C.3     2  LIG2       -0.0051
     20    C      -17.8080    4.5270   -7.5140 C.3     2  LIG2       -0.0258
     21    C      -28.3000    6.4790   -6.1890 C.3     2  LIG2       -0.0502
     22    C      -17.6080    3.0830   -7.0680 C.3     2  LIG2        0.0590
     23    C      -26.3580    8.0520   -6.4030 C.3     2  LIG2       -0.0621
     24    C      -29.3260    7.5530   -6.5780 C.3     2  LIG2       -0.0526
     25    C      -30.7590    7.2090   -6.1600 C.3     2  LIG2       -0.0507
     26    C      -31.8040    8.2230   -6.6650 C.3     2  LIG2       -0.0467
     27    C      -31.6180    9.6120   -6.0540 C.3     2  LIG2       -0.0627
     28    C      -33.2130    7.7100   -6.3560 C.3     2  LIG2       -0.0627
     29    H      -16.2500    2.7630   -8.4610 H       2  LIG2        0.2098
     30    H      -23.7700    4.1310   -5.5050 H       2  LIG2        0.0309
     31    H      -23.0200    3.3880   -8.2040 H       2  LIG2        0.0309
     32    H      -21.4900    4.6990   -5.9580 H       2  LIG2        0.0312
     33    H      -25.6810    5.9730   -5.3080 H       2  LIG2        0.0309
     34    H      -23.4160    6.5730   -5.7550 H       2  LIG2        0.0271
     35    H      -23.8180    7.3870   -7.2650 H       2  LIG2        0.0271
     36    H      -25.3210    2.4400   -5.7910 H       2  LIG2        0.0268
     37    H      -25.4820    2.6780   -7.4770 H       2  LIG2        0.0268
     38    H      -22.2420    6.0850   -8.4780 H       2  LIG2        0.0268
     39    H      -21.4350    6.7290   -7.0280 H       2  LIG2        0.0268
     40    H      -27.2740    4.0890   -7.0310 H       2  LIG2        0.0268
     41    H      -26.9980    3.9620   -5.3330 H       2  LIG2        0.0268
     42    H      -23.0480    1.4550   -6.8930 H       2  LIG2        0.0310
     43    H      -22.4710    2.3500   -5.4690 H       2  LIG2        0.0310
     44    H      -26.9500    6.5510   -7.8310 H       2  LIG2        0.0301
     45    H      -25.6610    4.6370   -8.8120 H       2  LIG2        0.0235
     46    H      -24.0120    5.1070   -9.1500 H       2  LIG2        0.0235
     47    H      -25.2450    6.3290   -8.9470 H       2  LIG2        0.0235
     48    H      -19.2800    5.0680   -6.0840 H       2  LIG2        0.0274
     49    H      -19.3110    5.9920   -7.6100 H       2  LIG2        0.0274
     50    H      -20.6990    0.8800   -6.6310 H       2  LIG2        0.0572
     51    H      -21.2430    3.6860   -9.6060 H       2  LIG2        0.0238
     52    H      -19.5210    3.9720   -9.6660 H       2  LIG2        0.0238
     53    H      -20.6240    5.3150   -9.4860 H       2  LIG2        0.0238
     54    H      -18.5440    2.1200   -8.7190 H       2  LIG2        0.0335
     55    H      -18.5770    1.2040   -7.2110 H       2  LIG2        0.0335
     56    H      -17.0780    5.1440   -7.0330 H       2  LIG2        0.0290
     57    H      -17.6990    4.5700   -8.5770 H       2  LIG2        0.0290
     58    H      -28.2200    6.4740   -5.1220 H       2  LIG2        0.0268
     59    H      -28.6690    5.5650   -6.6050 H       2  LIG2        0.0268
     60    H      -17.6850    3.0340   -6.0020 H       2  LIG2        0.0596
     61    H      -26.2950    8.1410   -5.3380 H       2  LIG2        0.0233
     62    H      -27.0260    8.7950   -6.7850 H       2  LIG2        0.0233
     63    H      -25.3870    8.1910   -6.8300 H       2  LIG2        0.0233
     64    H      -29.3030    7.6740   -7.6410 H       2  LIG2        0.0265
     65    H      -29.0540    8.4500   -6.0620 H       2  LIG2        0.0265
     66    H      -30.8020    7.1800   -5.0910 H       2  LIG2        0.0268
     67    H      -30.9980    6.2630   -6.6000 H       2  LIG2        0.0268
     68    H      -31.6670    8.3190   -7.7220 H       2  LIG2        0.0295
     69    H      -31.7480    9.5560   -4.9940 H       2  LIG2        0.0232
     70    H      -32.3420   10.2830   -6.4680 H       2  LIG2        0.0232
     71    H      -30.6340    9.9700   -6.2740 H       2  LIG2        0.0232
     72    H      -33.3360    7.6190   -5.2970 H       2  LIG2        0.0232
     73    H      -33.3530    6.7530   -6.8150 H       2  LIG2        0.0232
     74    H      -33.9360    8.3990   -6.7410 H       2  LIG2        0.0232
@<TRIPOS>BOND
     1    52    18    1
     2    51    18    1
     3    53    18    1
     4    18     8    1
     5    46    14    1
     6    47    14    1
     7    45    14    1
     8    54    19    1
     9    14     2    1
    10    57    20    1
    11    38    10    1
    12    29     1    1
    13    31     4    1
    14    44    13    1
    15    68    26    1
    16     8    15    1
    17     8    16    1
    18     8     5    1
    19    19    15    1
    20    19    55    1
    21    19    22    1
    22    64    24    1
    23    49    16    1
    24    20    16    1
    25    20    22    1
    26    20    56    1
    27     1    22    1
    28    37     9    1
    29    10    39    1
    30    10     5    1
    31    10     7    1
    32    15    17    2
    33    35     7    1
    34     4     5    1
    35     4    12    1
    36     4     3    1
    37    16    48    1
    38     2     7    1
    39     2     3    1
    40     2     6    1
    41    22    60    1
    42    40    11    1
    43     5    32    1
    44    42    12    1
    45    17    50    1
    46    17    12    1
    47    63    23    1
    48    73    28    1
    49     7    34    1
    50    62    23    1
    51    13    23    1
    52    13     6    1
    53    13    21    1
    54    74    28    1
    55    26    28    1
    56    26    25    1
    57    26    27    1
    58    59    21    1
    59    67    25    1
    60    24    21    1
    61    24    25    1
    62    24    65    1
    63     9     3    1
    64     9    11    1
    65     9    36    1
    66    12    43    1
    67     3    30    1
    68    70    27    1
    69    23    61    1
    70    28    72    1
    71     6    11    1
    72     6    33    1
    73    71    27    1
    74    11    41    1
    75    21    58    1
    76    25    66    1
    77    27    69    1
@<TRIPOS>MOLECULE
ligand_94afd2169f_1_run_9.pdb
 74 77 0 0 0
SMALL
GASTEIGER

@<TRIPOS>ATOM
      1    O      -16.3040    2.9430   -7.5000 O.3     2  LIG2       -0.3915
      2    C      -25.0090    3.7270   -7.2750 C.3     2  LIG2       -0.0259
      3    C      -24.2470    2.4940   -6.7490 C.3     2  LIG2       -0.0320
      4    C      -22.8590    2.3260   -7.3750 C.3     2  LIG2       -0.0307
      5    C      -22.0100    3.6020   -7.1060 C.3     2  LIG2       -0.0285
      6    C      -26.3370    3.5470   -6.5010 C.3     2  LIG2       -0.0328
      7    C      -24.2000    4.9710   -6.8840 C.3     2  LIG2       -0.0468
      8    C      -20.5780    3.4940   -7.7680 C.3     2  LIG2       -0.0078
      9    C      -25.2570    1.3590   -6.8840 C.3     2  LIG2       -0.0492
     10    C      -22.7700    4.9130   -7.4500 C.3     2  LIG2       -0.0486
     11    C      -26.6140    2.0290   -6.5970 C.3     2  LIG2       -0.0492
     12    C      -22.1500    1.0890   -6.8030 C.3     2  LIG2       -0.0311
     13    C      -27.5150    4.3950   -6.9630 C.3     2  LIG2       -0.0405
     14    C      -25.2480    3.7130   -8.8060 C.3     2  LIG2       -0.0590
     15    C      -19.9640    2.1100   -7.5180 C.2     2  LIG2       -0.0648
     16    C      -19.6620    4.5800   -7.1290 C.3     2  LIG2       -0.0413
     17    C      -20.6810    1.0610   -7.0760 C.2     2  LIG2       -0.0839
     18    C      -20.6460    3.7170   -9.2980 C.3     2  LIG2       -0.0556
     19    C      -18.4840    1.9520   -7.7820 C.3     2  LIG2       -0.0051
     20    C      -18.1790    4.4300   -7.4640 C.3     2  LIG2       -0.0258
     21    C      -28.8720    3.8490   -6.4720 C.3     2  LIG2       -0.0502
     22    C      -17.6660    3.0430   -7.0960 C.3     2  LIG2        0.0590
     23    C      -27.3450    5.8390   -6.4770 C.3     2  LIG2       -0.0621
     24    C      -29.0920    3.8610   -4.9530 C.3     2  LIG2       -0.0526
     25    C      -30.3470    3.1020   -4.5120 C.3     2  LIG2       -0.0507
     26    C      -30.6100    3.1830   -2.9950 C.3     2  LIG2       -0.0467
     27    C      -31.5630    2.0930   -2.5050 C.3     2  LIG2       -0.0627
     28    C      -31.1780    4.5600   -2.6410 C.3     2  LIG2       -0.0627
     29    H      -16.2490    3.0000   -8.4670 H       2  LIG2        0.2098
     30    H      -23.9420    2.5610   -5.7250 H       2  LIG2        0.0309
     31    H      -22.9720    2.1880   -8.4300 H       2  LIG2        0.0309
     32    H      -21.8420    3.6600   -6.0510 H       2  LIG2        0.0312
     33    H      -26.2280    3.9050   -5.4990 H       2  LIG2        0.0309
     34    H      -24.1500    5.0320   -5.8170 H       2  LIG2        0.0271
     35    H      -24.6880    5.8310   -7.2920 H       2  LIG2        0.0271
     36    H      -25.0570    0.5850   -6.1720 H       2  LIG2        0.0268
     37    H      -25.2240    0.8920   -7.8460 H       2  LIG2        0.0268
     38    H      -22.8240    5.0020   -8.5140 H       2  LIG2        0.0268
     39    H      -22.2250    5.7160   -6.9980 H       2  LIG2        0.0268
     40    H      -27.3020    1.8270   -7.3920 H       2  LIG2        0.0268
     41    H      -27.0500    1.6550   -5.6940 H       2  LIG2        0.0268
     42    H      -22.5920    0.2160   -7.2370 H       2  LIG2        0.0310
     43    H      -22.2710    1.1230   -5.7410 H       2  LIG2        0.0310
     44    H      -27.5200    4.3590   -8.0330 H       2  LIG2        0.0301
     45    H      -25.8120    2.8440   -9.0710 H       2  LIG2        0.0235
     46    H      -24.3060    3.6960   -9.3140 H       2  LIG2        0.0235
     47    H      -25.7900    4.5910   -9.0900 H       2  LIG2        0.0235
     48    H      -19.7720    4.5280   -6.0660 H       2  LIG2        0.0274
     49    H      -19.9730    5.5200   -7.5350 H       2  LIG2        0.0274
     50    H      -20.1810    0.1730   -6.9130 H       2  LIG2        0.0572
     51    H      -21.2750    2.9720   -9.7390 H       2  LIG2        0.0238
     52    H      -19.6620    3.6450   -9.7130 H       2  LIG2        0.0238
     53    H      -21.0480    4.6880   -9.4990 H       2  LIG2        0.0238
     54    H      -18.3130    2.0030   -8.8370 H       2  LIG2        0.0335
     55    H      -18.1740    1.0070   -7.3870 H       2  LIG2        0.0335
     56    H      -17.6220    5.1640   -6.9190 H       2  LIG2        0.0290
     57    H      -18.0550    4.5670   -8.5180 H       2  LIG2        0.0290
     58    H      -28.9580    2.8370   -6.8070 H       2  LIG2        0.0268
     59    H      -29.6110    4.5090   -6.8750 H       2  LIG2        0.0268
     60    H      -17.7570    2.9070   -6.0380 H       2  LIG2        0.0596
     61    H      -27.3410    5.8570   -5.4070 H       2  LIG2        0.0233
     62    H      -28.1550    6.4360   -6.8420 H       2  LIG2        0.0233
     63    H      -26.4190    6.2320   -6.8430 H       2  LIG2        0.0233
     64    H      -29.1800    4.8780   -4.6310 H       2  LIG2        0.0265
     65    H      -28.2530    3.3670   -4.5090 H       2  LIG2        0.0265
     66    H      -30.2340    2.0730   -4.7820 H       2  LIG2        0.0268
     67    H      -31.1810    3.5600   -5.0020 H       2  LIG2        0.0268
     68    H      -29.6720    3.0310   -2.5030 H       2  LIG2        0.0295
     69    H      -32.5150    2.2130   -2.9770 H       2  LIG2        0.0232
     70    H      -31.6780    2.1710   -1.4440 H       2  LIG2        0.0232
     71    H      -31.1620    1.1320   -2.7500 H       2  LIG2        0.0232
     72    H      -32.1150    4.6980   -3.1400 H       2  LIG2        0.0232
     73    H      -30.4930    5.3200   -2.9540 H       2  LIG2        0.0232
     74    H      -31.3250    4.6250   -1.5830 H       2  LIG2        0.0232
@<TRIPOS>BOND
     1    51    18    1
     2    52    18    1
     3    53    18    1
     4    46    14    1
     5    18     8    1
     6    47    14    1
     7    45    14    1
     8    54    19    1
     9    14     2    1
    10    57    20    1
    11    38    10    1
    12    29     1    1
    13    31     4    1
    14    44    13    1
    15    37     9    1
    16    19    15    1
    17    19    55    1
    18    19    22    1
    19     8    15    1
    20     8    16    1
    21     8     5    1
    22    49    16    1
    23    15    17    2
    24     1    22    1
    25    20    16    1
    26    20    22    1
    27    20    56    1
    28    10     5    1
    29    10    39    1
    30    10     7    1
    31    40    11    1
    32     4     5    1
    33     4    12    1
    34     4     3    1
    35    35     7    1
    36     2     7    1
    37     2     3    1
    38     2     6    1
    39    42    12    1
    40    16    48    1
    41     5    32    1
    42    22    60    1
    43    17    50    1
    44    17    12    1
    45    13     6    1
    46    13    23    1
    47    13    21    1
    48     7    34    1
    49     9     3    1
    50     9    11    1
    51     9    36    1
    52    59    21    1
    53    63    23    1
    54    62    23    1
    55    58    21    1
    56    12    43    1
    57     3    30    1
    58    11     6    1
    59    11    41    1
    60     6    33    1
    61    23    61    1
    62    21    24    1
    63    67    25    1
    64    24    64    1
    65    24    25    1
    66    24    65    1
    67    66    25    1
    68    25    26    1
    69    72    28    1
    70    26    28    1
    71    26    27    1
    72    26    68    1
    73    69    27    1
    74    73    28    1
    75    71    27    1
    76    28    74    1
    77    27    70    1
@<TRIPOS>MOLECULE
ligand_94afd2169f_1_run_12.pdb
 74 77 0 0 0
SMALL
GASTEIGER

@<TRIPOS>ATOM
      1    O      -16.5000    2.8960   -7.5000 O.3     2  LIG2       -0.3915
      2    C      -24.7180    5.8580   -7.1560 C.3     2  LIG2       -0.0259
      3    C      -24.3380    4.4460   -7.6420 C.3     2  LIG2       -0.0320
      4    C      -22.8920    4.3440   -8.1380 C.3     2  LIG2       -0.0307
      5    C      -21.9210    4.7680   -6.9990 C.3     2  LIG2       -0.0285
      6    C      -26.2050    5.6080   -6.8040 C.3     2  LIG2       -0.0328
      7    C      -23.8210    6.1900   -5.9560 C.3     2  LIG2       -0.0468
      8    C      -20.4140    4.7180   -7.4740 C.3     2  LIG2       -0.0078
      9    C      -25.4700    4.0730   -8.5950 C.3     2  LIG2       -0.0492
     10    C      -22.3300    6.1090   -6.3280 C.3     2  LIG2       -0.0486
     11    C      -26.7150    4.7330   -7.9730 C.3     2  LIG2       -0.0492
     12    C      -22.5740    2.9140   -8.5990 C.3     2  LIG2       -0.0311
     13    C      -27.0660    6.8410   -6.5670 C.3     2  LIG2       -0.0405
     14    C      -24.5780    6.9570   -8.2390 C.3     2  LIG2       -0.0590
     15    C      -20.1350    3.4350   -8.2680 C.2     2  LIG2       -0.0648
     16    C      -19.5020    4.7440   -6.2120 C.3     2  LIG2       -0.0413
     17    C      -21.1110    2.6430   -8.7450 C.2     2  LIG2       -0.0839
     18    C      -20.0680    5.9250   -8.3800 C.3     2  LIG2       -0.0556
     19    C      -18.6860    3.0680   -8.5010 C.3     2  LIG2       -0.0051
     20    C      -18.0330    4.4290   -6.4880 C.3     2  LIG2       -0.0258
     21    C      -28.5760    6.5260   -6.5770 C.3     2  LIG2       -0.0502
     22    C      -17.8790    3.0940   -7.2060 C.3     2  LIG2        0.0590
     23    C      -26.6940    7.4910   -5.2290 C.3     2  LIG2       -0.0621
     24    C      -29.0710    5.5710   -5.4820 C.3     2  LIG2       -0.0526
     25    C      -30.5480    5.1880   -5.6270 C.3     2  LIG2       -0.0507
     26    C      -31.0920    4.3850   -4.4300 C.3     2  LIG2       -0.0467
     27    C      -30.3930    3.0360   -4.2600 C.3     2  LIG2       -0.0627
     28    C      -32.5990    4.1650   -4.5970 C.3     2  LIG2       -0.0627
     29    H      -16.3540    2.9990   -8.4530 H       2  LIG2        0.2098
     30    H      -24.2830    3.7070   -6.8700 H       2  LIG2        0.0309
     31    H      -22.7680    4.9990   -8.9750 H       2  LIG2        0.0309
     32    H      -22.0060    4.0430   -6.2170 H       2  LIG2        0.0312
     33    H      -26.2800    5.1370   -5.8460 H       2  LIG2        0.0309
     34    H      -24.0210    5.4930   -5.1690 H       2  LIG2        0.0271
     35    H      -24.0350    7.1900   -5.6420 H       2  LIG2        0.0271
     36    H      -25.5890    3.0110   -8.6470 H       2  LIG2        0.0268
     37    H      -25.2880    4.4010   -9.5970 H       2  LIG2        0.0268
     38    H      -22.1080    6.9070   -7.0060 H       2  LIG2        0.0268
     39    H      -21.7770    6.1820   -5.4150 H       2  LIG2        0.0268
     40    H      -27.2150    5.3400   -8.6990 H       2  LIG2        0.0268
     41    H      -27.4160    3.9990   -7.6330 H       2  LIG2        0.0268
     42    H      -23.0450    2.7510   -9.5460 H       2  LIG2        0.0310
     43    H      -22.9410    2.2530   -7.8420 H       2  LIG2        0.0310
     44    H      -26.8710    7.5140   -7.3760 H       2  LIG2        0.0301
     45    H      -25.2060    6.7190   -9.0720 H       2  LIG2        0.0235
     46    H      -23.5590    7.0090   -8.5630 H       2  LIG2        0.0235
     47    H      -24.8700    7.9010   -7.8290 H       2  LIG2        0.0235
     48    H      -19.8740    4.0220   -5.5150 H       2  LIG2        0.0274
     49    H      -19.5340    5.7440   -5.8320 H       2  LIG2        0.0274
     50    H      -20.8310    1.7860   -9.2490 H       2  LIG2        0.0572
     51    H      -20.6930    5.9100   -9.2480 H       2  LIG2        0.0238
     52    H      -19.0420    5.8650   -8.6780 H       2  LIG2        0.0238
     53    H      -20.2300    6.8340   -7.8400 H       2  LIG2        0.0238
     54    H      -18.2590    3.7660   -9.1900 H       2  LIG2        0.0335
     55    H      -18.6550    2.0730   -8.8930 H       2  LIG2        0.0335
     56    H      -17.5040    4.3880   -5.5590 H       2  LIG2        0.0290
     57    H      -17.6350    5.1980   -7.1170 H       2  LIG2        0.0290
     58    H      -28.8130    6.0880   -7.5240 H       2  LIG2        0.0268
     59    H      -29.0670    7.4580   -6.3900 H       2  LIG2        0.0268
     60    H      -18.2460    2.3130   -6.5730 H       2  LIG2        0.0596
     61    H      -26.8950    6.8070   -4.4310 H       2  LIG2        0.0233
     62    H      -27.2740    8.3800   -5.0900 H       2  LIG2        0.0233
     63    H      -25.6540    7.7420   -5.2300 H       2  LIG2        0.0233
     64    H      -28.9360    6.0450   -4.5320 H       2  LIG2        0.0265
     65    H      -28.5020    4.6690   -5.5690 H       2  LIG2        0.0265
     66    H      -30.6590    4.5970   -6.5120 H       2  LIG2        0.0268
     67    H      -31.1060    6.1000   -5.6760 H       2  LIG2        0.0268
     68    H      -30.8960    4.9580   -3.5480 H       2  LIG2        0.0295
     69    H      -30.5670    2.4320   -5.1260 H       2  LIG2        0.0232
     70    H      -30.7800    2.5400   -3.3950 H       2  LIG2        0.0232
     71    H      -29.3410    3.1920   -4.1400 H       2  LIG2        0.0232
     72    H      -32.7790    3.5900   -5.4820 H       2  LIG2        0.0232
     73    H      -33.0900    5.1120   -4.6800 H       2  LIG2        0.0232
     74    H      -32.9790    3.6390   -3.7470 H       2  LIG2        0.0232
@<TRIPOS>BOND
     1    37     9    1
     2    42    12    1
     3    50    17    1
     4    51    18    1
     5    54    19    1
     6    45    14    1
     7    31     4    1
     8    55    19    1
     9    17    12    1
    10    17    15    2
    11    40    11    1
    12    52    18    1
    13    36     9    1
    14    12     4    1
    15    12    43    1
    16     9    11    1
    17     9     3    1
    18    46    14    1
    19    19    15    1
    20    19    22    1
    21    29     1    1
    22    18    53    1
    23    18     8    1
    24    15     8    1
    25    14    47    1
    26    14     2    1
    27     4     3    1
    28     4     5    1
    29    11    41    1
    30    11     6    1
    31     3     2    1
    32     3    30    1
    33    58    21    1
    34     1    22    1
    35     8     5    1
    36     8    16    1
    37    44    13    1
    38    22    60    1
    39    22    20    1
    40     2     6    1
    41     2     7    1
    42    57    20    1
    43    38    10    1
    44     5    10    1
    45     5    32    1
    46     6    13    1
    47     6    33    1
    48    21    13    1
    49    21    59    1
    50    21    24    1
    51    13    23    1
    52    66    25    1
    53    20    16    1
    54    20    56    1
    55    10     7    1
    56    10    39    1
    57    16    49    1
    58    16    48    1
    59     7    35    1
    60     7    34    1
    61    67    25    1
    62    25    24    1
    63    25    26    1
    64    65    24    1
    65    24    64    1
    66    72    28    1
    67    63    23    1
    68    23    62    1
    69    23    61    1
    70    69    27    1
    71    73    28    1
    72    28    26    1
    73    28    74    1
    74    26    27    1
    75    26    68    1
    76    27    71    1
    77    27    70    1
