47936
     RDKit          3D

 29 31  0  0  1  0  0  0  0  0999 V2000
   -9.4661   -0.6039   -0.1351 O   0  0  0  0  0  0  0  0  0  0  0  0
   -7.5176    0.7043   -1.0912 O   0  0  0  0  0  0  0  0  0  0  0  0
   -7.2207   -3.4083   -2.1900 O   0  0  0  0  0  0  0  0  0  0  0  0
   -8.1443   -2.7513    0.4585 O   0  0  0  0  0  0  0  0  0  0  0  0
   -6.5947    1.8135   -2.6980 O   0  0  0  0  0  0  0  0  0  0  0  0
   -9.3567    1.1945   -3.6847 O   0  0  0  0  0  0  0  0  0  0  0  0
   -6.6490   -2.6516    2.0861 O   0  0  0  0  0  0  0  0  0  0  0  0
   -7.1637   -0.5228   -3.0325 C   0  0  1  0  0  0  0  0  0  0  0  0
   -6.1193   -1.2533   -2.2554 C   0  0  2  0  0  0  0  0  0  0  0  0
   -8.2161   -0.1102   -2.0277 C   0  0  1  0  0  0  0  0  0  0  0  0
   -8.7833   -1.1842   -1.1934 C   0  0  1  0  0  0  0  0  0  0  0  0
   -4.8575   -1.5693   -2.9847 C   0  0  1  0  0  0  0  0  0  0  0  0
   -6.6437   -2.4224   -1.4471 C   0  0  1  0  0  0  0  0  0  0  0  0
   -6.5349    0.7436   -3.5857 C   0  0  2  0  0  0  0  0  0  0  0  0
   -7.6171   -1.8907   -0.4738 C   0  0  2  0  0  0  0  0  0  0  0  0
   -4.6139   -0.7663   -4.2139 C   0  0  0  0  0  0  0  0  0  0  0  0
   -5.1560    0.6131   -4.0858 C   0  0  0  0  0  0  0  0  0  0  0  0
   -7.7075   -1.2542   -4.2189 C   0  0  0  0  0  0  0  0  0  0  0  0
   -9.2878    0.7160   -2.5668 C   0  0  0  0  0  0  0  0  0  0  0  0
   -9.6576   -2.1847   -1.8146 C   0  0  0  0  0  0  0  0  0  0  0  0
   -3.6420   -1.3688   -2.0604 C   0  0  0  0  0  0  0  0  0  0  0  0
   -4.7599   -3.0387   -3.3927 C   0  0  0  0  0  0  0  0  0  0  0  0
  -10.4584    0.2522   -0.3921 C   0  0  1  0  0  0  0  0  0  0  0  0
  -10.4300    1.0155   -1.6613 C   0  0  0  0  0  0  0  0  0  0  0  0
  -11.8578   -0.3693   -0.2686 C   0  0  0  0  0  0  0  0  0  0  0  0
  -10.4157    1.2863    0.7214 C   0  0  0  0  0  0  0  0  0  0  0  0
   -7.3923   -3.3764    1.4104 C   0  0  0  0  0  0  0  0  0  0  0  0
   -9.5094    2.2388    0.6765 C   0  0  0  0  0  0  0  0  0  0  0  0
   -7.3990   -4.8313    1.6900 C   0  0  0  0  0  0  0  0  0  0  0  0
  1 11  1  0
  1 23  1  0
 10  2  1  1
 13  3  1  6
 15  4  1  6
  4 27  1  0
 14  5  1  1
  6 19  2  0
  7 27  2  0
  8  9  1  0
  8 10  1  0
  8 14  1  0
  8 18  1  6
  9 12  1  6
  9 13  1  0
 10 11  1  0
 10 19  1  0
 11 15  1  0
 11 20  1  6
 12 16  1  0
 12 21  1  1
 12 22  1  0
 13 15  1  0
 14 17  1  0
 16 17  1  0
 19 24  1  0
 23 24  1  0
 23 25  1  1
 23 26  1  0
 26 28  2  0
 27 29  1  0
M  END
>  <PUBCHEM_COMPOUND_CID>  (1) 
47936

>  <PUBCHEM_CONFORMER_RMSD>  (1) 
0.8

>  <PUBCHEM_CONFORMER_DIVERSEORDER>  (1) 
1
2

>  <PUBCHEM_MMFF94_PARTIAL_CHARGES>  (1) 
25
1 -0.56
10 0.34
11 0.28
13 0.28
14 0.28
15 0.28
19 0.45
2 -0.68
23 0.42
24 0.06
26 -0.29
27 0.66
28 -0.3
29 0.06
3 -0.68
4 -0.43
5 -0.68
52 0.4
53 0.4
54 0.4
58 0.15
59 0.15
6 -0.57
60 0.15
7 -0.57

>  <PUBCHEM_EFFECTIVE_ROTOR_COUNT>  (1) 
4.8

>  <PUBCHEM_PHARMACOPHORE_FEATURES>  (1) 
14
1 1 acceptor
1 2 acceptor
1 2 donor
1 28 hydrophobe
1 3 acceptor
1 3 donor
1 5 acceptor
1 5 donor
1 6 acceptor
1 7 acceptor
3 12 21 22 hydrophobe
6 1 10 11 19 23 24 rings
6 8 9 10 11 13 15 rings
6 8 9 12 14 16 17 rings

>  <PUBCHEM_HEAVY_ATOM_COUNT>  (1) 
29

>  <PUBCHEM_ATOM_DEF_STEREO_COUNT>  (1) 
8

>  <PUBCHEM_ATOM_UDEF_STEREO_COUNT>  (1) 
0

>  <PUBCHEM_BOND_DEF_STEREO_COUNT>  (1) 
0

>  <PUBCHEM_BOND_UDEF_STEREO_COUNT>  (1) 
0

>  <PUBCHEM_ISOTOPIC_ATOM_COUNT>  (1) 
0

>  <PUBCHEM_COMPONENT_COUNT>  (1) 
1

>  <PUBCHEM_CACTVS_TAUTO_COUNT>  (1) 
2

>  <PUBCHEM_CONFORMER_ID>  (1) 
0000BB4000000001

>  <PUBCHEM_MMFF94_ENERGY>  (1) 
136.9121

>  <PUBCHEM_FEATURE_SELFOVERLAP>  (1) 
71.108

>  <PUBCHEM_SHAPE_FINGERPRINT>  (1) 
10006869 2 17691123739322892537
10165383 225 16754684992824465796
10675989 125 16963773643069737549
10863032 1 18263654028849577015
10930396 42 17614226292425378656
10967382 1 18339086990583352215
1100329 8 18339091457776582209
11578080 2 16553641649416409129
12160290 23 18054493717550726012
12553582 1 18410860940606859677
12633257 1 18335422361483142387
12788726 201 18261679151716650808
13132413 78 18343025527075122716
13140716 1 18412538825768973616
13224815 77 18411698777141860990
133893 2 17762308698351927556
14022347 108 18265352641339316166
14081887 123 18195797479915690640
14178342 30 18343869917999373091
14223421 5 18054226518828600622
14787075 74 18187938330030765500
14790565 3 18195260020963131172
14955137 171 18267043775937701706
15230672 131 17400081267985163348
1601671 61 18412553119383334662
16945 1 18337959986743249143
17349148 13 18410566319094290055
17980427 23 17917423276657061985
19591789 44 17546174459338325204
20510252 161 18267023843163318432
20600515 1 18272386273062458076
20691752 17 18268718199276839235
20715895 44 17607231070542367629
20739085 24 18411708715791279112
20905425 154 17477494564941420639
2334 1 17977670032484226079
23366157 5 17899412283618984189
23419403 2 17611145580739008230
23557571 272 18270123379305516932
23558518 356 17618774765506728524
23559900 14 18268991071639758281
2748010 2 18342444985289019828
34934 24 18338796719619159839
350125 39 18050015677320641525
5939293 188 18338518645976634854
6004065 56 18270382959314743813
70251023 43 17479719530538250551
7364860 26 18123757718423869184
81228 2 18268994176632451760
90316 7 18336536132059573264
9981440 41 17257932022944827089

>  <PUBCHEM_SHAPE_MULTIPOLES>  (1) 
555.72
6.56
4.54
1.63
0.43
5.82
0.17
-2.74
1.47
-0.28
0.11
0.59
-0.1
0.09

>  <PUBCHEM_SHAPE_SELFOVERLAP>  (1) 
1172.03

>  <PUBCHEM_SHAPE_VOLUME>  (1) 
305.1

>  <PUBCHEM_COORDINATE_TYPE>  (1) 
2
5
10

$$$$
