# Top-energy pose of compounds ranked according to the score (given in kcal/mol).
@<TRIPOS>MOLECULE
ligand_ced197c005_1_run_8.pdb
 57 60 0 0 0
SMALL
GASTEIGER

@<TRIPOS>ATOM
      1    F        4.0690   -5.3140   -2.0950 F       2  LIG2       -0.2377
      2    O        2.4990   -7.2090   -5.7080 O.3     2  LIG2       -0.3802
      3    O        3.2750   -8.5850   -0.8990 O.3     2  LIG2       -0.3886
      4    O        0.8810  -10.1580   -5.6000 O.2     2  LIG2       -0.2919
      5    O        3.1160  -10.9400   -6.7610 O.3     2  LIG2       -0.3874
      6    O        5.9940   -3.4670    1.9130 O.2     2  LIG2       -0.2879
      7    C        2.1320   -7.9220   -3.4900 C.3     2  LIG2        0.0096
      8    C        1.6390   -6.4770   -3.3210 C.3     2  LIG2       -0.0263
      9    C        1.8420   -5.9690   -1.9420 C.3     2  LIG2        0.0003
     10    C        3.2280   -6.2370   -1.4750 C.3     2  LIG2        0.1526
     11    C        1.7710   -8.1120   -4.9370 C.3     2  LIG2        0.1340
     12    C        0.2270   -6.6360   -3.7650 C.3     2  LIG2       -0.0436
     13    C        3.5820   -7.9250   -3.1930 C.3     2  LIG2       -0.0151
     14    C        0.3270   -7.5920   -4.9420 C.3     2  LIG2       -0.0071
     15    C        3.7610   -7.5930   -1.7270 C.3     2  LIG2        0.0910
     16    C        3.2480   -5.8800    0.0160 C.3     2  LIG2        0.0443
     17    C        1.5610   -4.4970   -1.9290 C.3     2  LIG2       -0.0432
     18    C        1.3250   -8.8730   -2.6660 C.3     2  LIG2       -0.0562
     19    C        1.9760   -3.7790   -0.6870 C.3     2  LIG2       -0.0301
     20    C        3.1100   -4.4070    0.0150 C.2     2  LIG2       -0.0532
     21    C        1.8730   -9.4900   -5.4100 C.2     2  LIG2        0.1904
     22    C        0.0740   -6.7740   -6.2000 C.3     2  LIG2       -0.0594
     23    C        2.0060   -6.4120    0.7030 C.3     2  LIG2       -0.0493
     24    C        4.4090   -6.3910    0.7240 C.2     2  LIG2       -0.0674
     25    C        3.9950   -3.6440    0.6260 C.2     2  LIG2       -0.0148
     26    C        3.1940  -10.1050   -5.6710 C.3     2  LIG2        0.1052
     27    C        5.3040   -5.6480    1.3400 C.2     2  LIG2       -0.0180
     28    C        5.1330   -4.2020    1.3190 C.2     2  LIG2        0.1787
     29    H        2.4950   -7.4990   -6.6340 H       2  LIG2        0.2108
     30    H        3.7360   -9.4180   -1.0860 H       2  LIG2        0.2099
     31    H        2.9670  -10.4140   -7.5620 H       2  LIG2        0.2100
     32    H        2.1620   -5.7260   -3.8760 H       2  LIG2        0.0311
     33    H        1.1750   -6.4740   -1.2750 H       2  LIG2        0.0336
     34    H       -0.1850   -5.6970   -4.0700 H       2  LIG2        0.0272
     35    H       -0.4140   -6.9980   -2.9890 H       2  LIG2        0.0272
     36    H        4.0770   -7.1920   -3.7940 H       2  LIG2        0.0297
     37    H        4.0030   -8.8840   -3.4100 H       2  LIG2        0.0297
     38    H       -0.3670   -8.4040   -4.8940 H       2  LIG2        0.0330
     39    H        4.8010   -7.5670   -1.4800 H       2  LIG2        0.0626
     40    H        0.5070   -4.3610   -2.0520 H       2  LIG2        0.0272
     41    H        2.1430   -4.0770   -2.7220 H       2  LIG2        0.0272
     42    H        0.2950   -8.8030   -2.9480 H       2  LIG2        0.0236
     43    H        1.4290   -8.6250   -1.6310 H       2  LIG2        0.0236
     44    H        1.6730   -9.8710   -2.8300 H       2  LIG2        0.0236
     45    H        1.1400   -3.7500   -0.0200 H       2  LIG2        0.0310
     46    H        2.2970   -2.8030   -0.9860 H       2  LIG2        0.0310
     47    H        0.7710   -5.9630   -6.2450 H       2  LIG2        0.0233
     48    H       -0.9230   -6.3870   -6.1790 H       2  LIG2        0.0233
     49    H        0.1970   -7.3970   -7.0620 H       2  LIG2        0.0233
     50    H        1.1360   -6.0480    0.1990 H       2  LIG2        0.0242
     51    H        1.9920   -6.0830    1.7210 H       2  LIG2        0.0242
     52    H        2.0130   -7.4820    0.6750 H       2  LIG2        0.0242
     53    H        4.5420   -7.4150    0.7460 H       2  LIG2        0.0583
     54    H        3.8710   -2.6190    0.6090 H       2  LIG2        0.0656
     55    H        3.9110   -9.3350   -5.8650 H       2  LIG2        0.0637
     56    H        3.4930  -10.6720   -4.8140 H       2  LIG2        0.0637
     57    H        6.1060   -6.0790    1.8250 H       2  LIG2        0.0653
@<TRIPOS>BOND
     1    31     5    1
     2    49    22    1
     3     5    26    1
     4    29     2    1
     5    47    22    1
     6    22    48    1
     7    22    14    1
     8    55    26    1
     9     2    11    1
    10    26    21    1
    11    26    56    1
    12     4    21    2
    13    21    11    1
    14    14    11    1
    15    14    38    1
    16    14    12    1
    17    11     7    1
    18    34    12    1
    19    32     8    1
    20    36    13    1
    21    12     8    1
    22    12    35    1
    23     7     8    1
    24     7    13    1
    25     7    18    1
    26    37    13    1
    27     8     9    1
    28    13    15    1
    29    42    18    1
    30    44    18    1
    31    41    17    1
    32    18    43    1
    33     1    10    1
    34    40    17    1
    35     9    17    1
    36     9    10    1
    37     9    33    1
    38    17    19    1
    39    15    39    1
    40    15    10    1
    41    15     3    1
    42    10    16    1
    43    30     3    1
    44    46    19    1
    45    19    45    1
    46    19    20    1
    47    20    16    1
    48    20    25    2
    49    16    23    1
    50    16    24    1
    51    50    23    1
    52    54    25    1
    53    25    28    1
    54    52    23    1
    55    23    51    1
    56    24    53    1
    57    24    27    2
    58    28    27    1
    59    28     6    2
    60    27    57    1
