@<TRIPOS>MOLECULE
ligand_ced197c005_1_run_8.pdb
 57 60 0 0 0
SMALL
GASTEIGER

@<TRIPOS>ATOM
      1    F        4.0690   -5.3140   -2.0950 F       2  LIG2       -0.2377
      2    O        2.4990   -7.2090   -5.7080 O.3     2  LIG2       -0.3802
      3    O        3.2750   -8.5850   -0.8990 O.3     2  LIG2       -0.3886
      4    O        0.8810  -10.1580   -5.6000 O.2     2  LIG2       -0.2919
      5    O        3.1160  -10.9400   -6.7610 O.3     2  LIG2       -0.3874
      6    O        5.9940   -3.4670    1.9130 O.2     2  LIG2       -0.2879
      7    C        2.1320   -7.9220   -3.4900 C.3     2  LIG2        0.0096
      8    C        1.6390   -6.4770   -3.3210 C.3     2  LIG2       -0.0263
      9    C        1.8420   -5.9690   -1.9420 C.3     2  LIG2        0.0003
     10    C        3.2280   -6.2370   -1.4750 C.3     2  LIG2        0.1526
     11    C        1.7710   -8.1120   -4.9370 C.3     2  LIG2        0.1340
     12    C        0.2270   -6.6360   -3.7650 C.3     2  LIG2       -0.0436
     13    C        3.5820   -7.9250   -3.1930 C.3     2  LIG2       -0.0151
     14    C        0.3270   -7.5920   -4.9420 C.3     2  LIG2       -0.0071
     15    C        3.7610   -7.5930   -1.7270 C.3     2  LIG2        0.0910
     16    C        3.2480   -5.8800    0.0160 C.3     2  LIG2        0.0443
     17    C        1.5610   -4.4970   -1.9290 C.3     2  LIG2       -0.0432
     18    C        1.3250   -8.8730   -2.6660 C.3     2  LIG2       -0.0562
     19    C        1.9760   -3.7790   -0.6870 C.3     2  LIG2       -0.0301
     20    C        3.1100   -4.4070    0.0150 C.2     2  LIG2       -0.0532
     21    C        1.8730   -9.4900   -5.4100 C.2     2  LIG2        0.1904
     22    C        0.0740   -6.7740   -6.2000 C.3     2  LIG2       -0.0594
     23    C        2.0060   -6.4120    0.7030 C.3     2  LIG2       -0.0493
     24    C        4.4090   -6.3910    0.7240 C.2     2  LIG2       -0.0674
     25    C        3.9950   -3.6440    0.6260 C.2     2  LIG2       -0.0148
     26    C        3.1940  -10.1050   -5.6710 C.3     2  LIG2        0.1052
     27    C        5.3040   -5.6480    1.3400 C.2     2  LIG2       -0.0180
     28    C        5.1330   -4.2020    1.3190 C.2     2  LIG2        0.1787
     29    H        2.4950   -7.4990   -6.6340 H       2  LIG2        0.2108
     30    H        3.7360   -9.4180   -1.0860 H       2  LIG2        0.2099
     31    H        2.9670  -10.4140   -7.5620 H       2  LIG2        0.2100
     32    H        2.1620   -5.7260   -3.8760 H       2  LIG2        0.0311
     33    H        1.1750   -6.4740   -1.2750 H       2  LIG2        0.0336
     34    H       -0.1850   -5.6970   -4.0700 H       2  LIG2        0.0272
     35    H       -0.4140   -6.9980   -2.9890 H       2  LIG2        0.0272
     36    H        4.0770   -7.1920   -3.7940 H       2  LIG2        0.0297
     37    H        4.0030   -8.8840   -3.4100 H       2  LIG2        0.0297
     38    H       -0.3670   -8.4040   -4.8940 H       2  LIG2        0.0330
     39    H        4.8010   -7.5670   -1.4800 H       2  LIG2        0.0626
     40    H        0.5070   -4.3610   -2.0520 H       2  LIG2        0.0272
     41    H        2.1430   -4.0770   -2.7220 H       2  LIG2        0.0272
     42    H        0.2950   -8.8030   -2.9480 H       2  LIG2        0.0236
     43    H        1.4290   -8.6250   -1.6310 H       2  LIG2        0.0236
     44    H        1.6730   -9.8710   -2.8300 H       2  LIG2        0.0236
     45    H        1.1400   -3.7500   -0.0200 H       2  LIG2        0.0310
     46    H        2.2970   -2.8030   -0.9860 H       2  LIG2        0.0310
     47    H        0.7710   -5.9630   -6.2450 H       2  LIG2        0.0233
     48    H       -0.9230   -6.3870   -6.1790 H       2  LIG2        0.0233
     49    H        0.1970   -7.3970   -7.0620 H       2  LIG2        0.0233
     50    H        1.1360   -6.0480    0.1990 H       2  LIG2        0.0242
     51    H        1.9920   -6.0830    1.7210 H       2  LIG2        0.0242
     52    H        2.0130   -7.4820    0.6750 H       2  LIG2        0.0242
     53    H        4.5420   -7.4150    0.7460 H       2  LIG2        0.0583
     54    H        3.8710   -2.6190    0.6090 H       2  LIG2        0.0656
     55    H        3.9110   -9.3350   -5.8650 H       2  LIG2        0.0637
     56    H        3.4930  -10.6720   -4.8140 H       2  LIG2        0.0637
     57    H        6.1060   -6.0790    1.8250 H       2  LIG2        0.0653
@<TRIPOS>BOND
     1    31     5    1
     2    49    22    1
     3     5    26    1
     4    29     2    1
     5    47    22    1
     6    22    48    1
     7    22    14    1
     8    55    26    1
     9     2    11    1
    10    26    21    1
    11    26    56    1
    12     4    21    2
    13    21    11    1
    14    14    11    1
    15    14    38    1
    16    14    12    1
    17    11     7    1
    18    34    12    1
    19    32     8    1
    20    36    13    1
    21    12     8    1
    22    12    35    1
    23     7     8    1
    24     7    13    1
    25     7    18    1
    26    37    13    1
    27     8     9    1
    28    13    15    1
    29    42    18    1
    30    44    18    1
    31    41    17    1
    32    18    43    1
    33     1    10    1
    34    40    17    1
    35     9    17    1
    36     9    10    1
    37     9    33    1
    38    17    19    1
    39    15    39    1
    40    15    10    1
    41    15     3    1
    42    10    16    1
    43    30     3    1
    44    46    19    1
    45    19    45    1
    46    19    20    1
    47    20    16    1
    48    20    25    2
    49    16    23    1
    50    16    24    1
    51    50    23    1
    52    54    25    1
    53    25    28    1
    54    52    23    1
    55    23    51    1
    56    24    53    1
    57    24    27    2
    58    28    27    1
    59    28     6    2
    60    27    57    1
@<TRIPOS>MOLECULE
ligand_ced197c005_1_run_17.pdb
 57 60 0 0 0
SMALL
GASTEIGER

@<TRIPOS>ATOM
      1    F        1.8980   -9.7760   -2.8710 F       2  LIG2       -0.2377
      2    O        5.4490   -8.7160   -0.5530 O.3     2  LIG2       -0.3802
      3    O        3.4430   -7.3570   -4.9980 O.3     2  LIG2       -0.3886
      4    O        7.3660   -6.0700   -1.3120 O.2     2  LIG2       -0.2919
      5    O        9.0020   -7.8960   -2.2010 O.3     2  LIG2       -0.3874
      6    O       -1.8270  -11.0000   -5.6660 O.2     2  LIG2       -0.2879
      7    C        4.4820   -7.4360   -2.2820 C.3     2  LIG2        0.0096
      8    C        3.2270   -7.5740   -1.4070 C.3     2  LIG2       -0.0263
      9    C        1.9770   -7.5480   -2.2060 C.3     2  LIG2        0.0003
     10    C        2.0640   -8.4810   -3.3610 C.3     2  LIG2        0.1526
     11    C        5.5170   -7.4810   -1.1940 C.3     2  LIG2        0.1340
     12    C        3.4390   -6.4320   -0.4760 C.3     2  LIG2       -0.0436
     13    C        4.4910   -8.5860   -3.2140 C.3     2  LIG2       -0.0151
     14    C        4.9330   -6.4670   -0.2010 C.3     2  LIG2       -0.0071
     15    C        3.3120   -8.4400   -4.1510 C.3     2  LIG2        0.0910
     16    C        0.8280   -8.2010   -4.2230 C.3     2  LIG2        0.0443
     17    C        0.8330   -7.9240   -1.3140 C.3     2  LIG2       -0.0432
     18    C        4.5410   -6.0970   -2.9440 C.3     2  LIG2       -0.0562
     19    C       -0.4550   -8.2100   -2.0140 C.3     2  LIG2       -0.0301
     20    C       -0.2890   -8.7050   -3.3930 C.2     2  LIG2       -0.0532
     21    C        6.8670   -7.1290   -1.6260 C.2     2  LIG2        0.1904
     22    C        5.1100   -6.9720    1.2240 C.3     2  LIG2       -0.0594
     23    C        0.6030   -6.7080   -4.3570 C.3     2  LIG2       -0.0493
     24    C        0.9080   -8.7660   -5.5590 C.2     2  LIG2       -0.0674
     25    C       -1.1330   -9.6010   -3.8650 C.2     2  LIG2       -0.0148
     26    C        7.6610   -8.0580   -2.4620 C.3     2  LIG2        0.1052
     27    C        0.0760   -9.6610   -6.0500 C.2     2  LIG2       -0.0180
     28    C       -1.0110  -10.1320   -5.2030 C.2     2  LIG2        0.1787
     29    H        6.2380   -8.8380   -0.0020 H       2  LIG2        0.2108
     30    H        4.1970   -7.5000   -5.5910 H       2  LIG2        0.2099
     31    H        9.2540   -6.9740   -2.3690 H       2  LIG2        0.2100
     32    H        3.1030   -8.5040   -0.8940 H       2  LIG2        0.0311
     33    H        1.8250   -6.5640   -2.5970 H       2  LIG2        0.0336
     34    H        2.8810   -6.5670    0.4270 H       2  LIG2        0.0272
     35    H        3.1130   -5.4970   -0.8830 H       2  LIG2        0.0272
     36    H        4.4060   -9.5000   -2.6630 H       2  LIG2        0.0297
     37    H        5.4060   -8.6070   -3.7680 H       2  LIG2        0.0297
     38    H        5.4110   -5.5150   -0.3080 H       2  LIG2        0.0330
     39    H        3.2760   -9.2670   -4.8280 H       2  LIG2        0.0626
     40    H        0.6660   -7.1170   -0.6320 H       2  LIG2        0.0272
     41    H        1.1180   -8.8380   -0.8350 H       2  LIG2        0.0272
     42    H        4.5300   -5.3300   -2.1990 H       2  LIG2        0.0236
     43    H        3.6940   -5.9810   -3.5890 H       2  LIG2        0.0236
     44    H        5.4400   -6.0230   -3.5190 H       2  LIG2        0.0236
     45    H       -1.0280   -7.3070   -2.0470 H       2  LIG2        0.0310
     46    H       -0.9420   -8.9870   -1.4620 H       2  LIG2        0.0310
     47    H        4.6320   -7.9240    1.3260 H       2  LIG2        0.0233
     48    H        4.6700   -6.2760    1.9060 H       2  LIG2        0.0233
     49    H        6.1530   -7.0720    1.4400 H       2  LIG2        0.0233
     50    H        0.5410   -6.2680   -3.3840 H       2  LIG2        0.0242
     51    H       -0.3080   -6.5300   -4.8880 H       2  LIG2        0.0242
     52    H        1.4200   -6.2710   -4.8940 H       2  LIG2        0.0242
     53    H        1.6740   -8.4420   -6.1690 H       2  LIG2        0.0583
     54    H       -1.9020   -9.9330   -3.2610 H       2  LIG2        0.0656
     55    H        7.3760   -9.0650   -2.2400 H       2  LIG2        0.0637
     56    H        7.4750   -7.8480   -3.4940 H       2  LIG2        0.0637
     57    H        0.1920  -10.0200   -7.0100 H       2  LIG2        0.0653
@<TRIPOS>BOND
     1    57    27    1
     2    53    24    1
     3    27    24    2
     4    27    28    1
     5     6    28    2
     6    30     3    1
     7    24    16    1
     8    28    25    1
     9     3    15    1
    10    52    23    1
    11    51    23    1
    12    39    15    1
    13    23    16    1
    14    23    50    1
    15    16    20    1
    16    16    10    1
    17    15    10    1
    18    15    13    1
    19    25    20    2
    20    25    54    1
    21    37    13    1
    22    43    18    1
    23    44    18    1
    24    56    26    1
    25    20    19    1
    26    10     1    1
    27    10     9    1
    28    13    36    1
    29    13     7    1
    30    18     7    1
    31    18    42    1
    32    33     9    1
    33    26    55    1
    34    26     5    1
    35    26    21    1
    36    31     5    1
    37     7     8    1
    38     7    11    1
    39     9     8    1
    40     9    17    1
    41    45    19    1
    42    19    46    1
    43    19    17    1
    44    21     4    2
    45    21    11    1
    46     8    32    1
    47     8    12    1
    48    17    41    1
    49    17    40    1
    50    11     2    1
    51    11    14    1
    52    35    12    1
    53     2    29    1
    54    12    14    1
    55    12    34    1
    56    38    14    1
    57    14    22    1
    58    22    47    1
    59    22    49    1
    60    22    48    1
@<TRIPOS>MOLECULE
ligand_ced197c005_1_run_17.pdb
 57 60 0 0 0
SMALL
GASTEIGER

@<TRIPOS>ATOM
      1    F       -6.6540   -1.5110    1.8100 F       2  LIG2       -0.2377
      2    O       -3.5710   -4.3770    2.9880 O.3     2  LIG2       -0.3802
      3    O       -8.5920   -4.4630    2.3530 O.3     2  LIG2       -0.3886
      4    O       -5.2980   -6.6180    4.3520 O.2     2  LIG2       -0.2919
      5    O       -3.5000   -8.3960    4.6190 O.3     2  LIG2       -0.3874
      6    O      -10.2060    1.5690    0.7700 O.2     2  LIG2       -0.2879
      7    C       -5.7220   -4.9020    2.1770 C.3     2  LIG2        0.0096
      8    C       -5.2800   -4.0070    1.0100 C.3     2  LIG2       -0.0263
      9    C       -6.4220   -3.3170    0.3620 C.3     2  LIG2        0.0003
     10    C       -7.2970   -2.6700    1.3760 C.3     2  LIG2        0.1526
     11    C       -4.3740   -5.4360    2.5710 C.3     2  LIG2        0.1340
     12    C       -4.5580   -5.0100    0.1790 C.3     2  LIG2       -0.0436
     13    C       -6.3730   -4.0250    3.1760 C.3     2  LIG2       -0.0151
     14    C       -3.8230   -5.8600    1.2030 C.3     2  LIG2       -0.0071
     15    C       -7.6450   -3.4800    2.5630 C.3     2  LIG2        0.0910
     16    C       -8.5420   -2.1950    0.6190 C.3     2  LIG2        0.0443
     17    C       -5.8850   -2.2960   -0.5940 C.3     2  LIG2       -0.0432
     18    C       -6.5680   -6.0390    1.7020 C.3     2  LIG2       -0.0562
     19    C       -6.8900   -1.3300   -1.1280 C.3     2  LIG2       -0.0301
     20    C       -8.0290   -1.0910   -0.2220 C.2     2  LIG2       -0.0532
     21    C       -4.4150   -6.5400    3.5260 C.2     2  LIG2        0.1904
     22    C       -2.3480   -5.4980    1.1020 C.3     2  LIG2       -0.0594
     23    C       -9.0140   -3.2660   -0.3460 C.3     2  LIG2       -0.0493
     24    C       -9.6550   -1.8470    1.4840 C.2     2  LIG2       -0.0674
     25    C       -8.5690    0.1100   -0.1660 C.2     2  LIG2       -0.0148
     26    C       -3.3760   -7.5950    3.5080 C.3     2  LIG2        0.1052
     27    C      -10.2090   -0.6540    1.5560 C.2     2  LIG2       -0.0180
     28    C       -9.6780    0.4060    0.7120 C.2     2  LIG2        0.1787
     29    H       -2.7820   -4.7250    3.4330 H       2  LIG2        0.2108
     30    H       -8.7730   -4.9210    3.1890 H       2  LIG2        0.2099
     31    H       -3.0150   -7.9990    5.3590 H       2  LIG2        0.2100
     32    H       -4.6690   -3.1640    1.2590 H       2  LIG2        0.0311
     33    H       -7.0170   -4.0330   -0.1650 H       2  LIG2        0.0336
     34    H       -3.8690   -4.5310   -0.4850 H       2  LIG2        0.0272
     35    H       -5.2130   -5.5830   -0.4430 H       2  LIG2        0.0272
     36    H       -5.7190   -3.2170    3.4310 H       2  LIG2        0.0297
     37    H       -6.5960   -4.5760    4.0650 H       2  LIG2        0.0297
     38    H       -3.9470   -6.9120    1.0540 H       2  LIG2        0.0330
     39    H       -8.1340   -2.8230    3.2520 H       2  LIG2        0.0626
     40    H       -5.4530   -2.8160   -1.4230 H       2  LIG2        0.0272
     41    H       -5.1800   -1.7130   -0.0390 H       2  LIG2        0.0272
     42    H       -6.0190   -6.6170    0.9870 H       2  LIG2        0.0236
     43    H       -7.4560   -5.6570    1.2450 H       2  LIG2        0.0236
     44    H       -6.8320   -6.6590    2.5330 H       2  LIG2        0.0236
     45    H       -7.2690   -1.7150   -2.0510 H       2  LIG2        0.0310
     46    H       -6.3870   -0.3940   -1.2480 H       2  LIG2        0.0310
     47    H       -2.2270   -4.4460    1.2510 H       2  LIG2        0.0233
     48    H       -1.9800   -5.7660    0.1330 H       2  LIG2        0.0233
     49    H       -1.7980   -6.0300    1.8510 H       2  LIG2        0.0233
     50    H       -8.2100   -3.5400   -0.9960 H       2  LIG2        0.0242
     51    H       -9.8290   -2.8880   -0.9270 H       2  LIG2        0.0242
     52    H       -9.3360   -4.1250    0.2050 H       2  LIG2        0.0242
     53    H      -10.0400   -2.5890    2.0890 H       2  LIG2        0.0583
     54    H       -8.1900    0.8600   -0.7650 H       2  LIG2        0.0656
     55    H       -3.4920   -8.1910    2.6260 H       2  LIG2        0.0637
     56    H       -2.4090   -7.1360    3.5110 H       2  LIG2        0.0637
     57    H      -11.0000   -0.4760    2.1950 H       2  LIG2        0.0653
@<TRIPOS>BOND
     1    45    19    1
     2    40    17    1
     3    46    19    1
     4    19    17    1
     5    19    20    1
     6    50    23    1
     7    51    23    1
     8    54    25    1
     9    17    41    1
    10    17     9    1
    11    34    12    1
    12    35    12    1
    13    23    52    1
    14    23    16    1
    15    20    25    2
    16    20    16    1
    17    25    28    1
    18    33     9    1
    19    48    22    1
    20    12     8    1
    21    12    14    1
    22     9     8    1
    23     9    10    1
    24    16    10    1
    25    16    24    1
    26    28     6    2
    27    28    27    1
    28    42    18    1
    29     8    32    1
    30     8     7    1
    31    38    14    1
    32    22    14    1
    33    22    47    1
    34    22    49    1
    35    14    11    1
    36    43    18    1
    37    10     1    1
    38    10    15    1
    39    24    27    2
    40    24    53    1
    41    27    57    1
    42    18     7    1
    43    18    44    1
    44     7    11    1
    45     7    13    1
    46     3    15    1
    47     3    30    1
    48    15    13    1
    49    15    39    1
    50    11     2    1
    51    11    21    1
    52    55    26    1
    53     2    29    1
    54    13    36    1
    55    13    37    1
    56    26    56    1
    57    26    21    1
    58    26     5    1
    59    21     4    2
    60     5    31    1
